%chk=holoCaM-CaMKII.loop4.water2.frame65.chk
%nprocshared=20
%mem=10GB
%nosave
#b3lyp/svp scf=(tight,noincore,xqc) Test 
#IOP(5/87=12) Density=Current Pop=(MK,readradii) iop(6/33=2) iop(6/42=6)

holoCaM-CaMKII.loop4.water2.frame65 

   -3  1 
C         83.58046       48.94323       72.34997
C         84.81068       48.21355       71.90038
O         85.55629       48.72899       71.07952
H         82.68225       48.32398       72.14097
H         83.64508       49.12556       73.44367
H         83.47691       49.91700       71.82753
N         85.06878       46.97728       72.40397
C         86.23087       46.17731       72.04638
C         85.88041       45.28190       70.86282
O         85.13753       44.32273       71.00688
C         86.72981       45.46364       73.32370
C         87.63708       44.28237       73.15418
O         87.31990       43.22179       73.66699
O         88.80456       44.35792       72.50161
H         84.37626       46.56982       73.05130
H         87.04595       46.85679       71.71493
H         85.85105       45.08305       73.88679
H         87.22935       46.22203       73.96721
N         86.33096       45.63838       69.62344
C         85.97898       44.98422       68.36377
C         86.75102       43.68303       68.14256
O         86.20567       42.81150       67.47936
C         86.16965       45.99185       67.16979
C         85.21188       47.20847       67.36179
C         85.92259       45.32857       65.79804
C         85.38157       48.33187       66.33550
H         86.85304       46.51957       69.56390
H         84.89368       44.73675       68.38463
H         87.22267       46.35088       67.17472
H         85.38357       47.67401       68.35337
H         84.15679       46.85817       67.33361
H         86.63699       44.49841       65.62410
H         84.88472       44.94063       65.72831
H         86.09973       46.04202       64.96868
H         84.68718       49.16178       66.58772
H         86.41696       48.72579       66.35744
H         85.13470       47.99708       65.30906
N         88.02011       43.48490       68.61304
C         88.80108       42.27787       68.31533
C         88.99522       41.36820       69.52960
O         89.65636       40.34807       69.39280
C         90.11040       42.63974       67.57442
C         91.11886       43.45052       68.33928
O         92.15656       43.77549       67.78451
O         90.91250       43.81286       69.61864
H         88.45432       44.21752       69.18718
H         88.24860       41.63959       67.59224
H         89.83819       43.20611       66.65600
H         90.61112       41.70066       67.25091
N         88.33636       41.59471       70.70259
C         88.27299       40.62680       71.79056
C         89.57270       40.42053       72.53230
O         90.01873       39.28719       72.64015
H         87.74195       42.43019       70.79482
H         87.89020       39.65899       71.39738
H         87.53300       40.98428       72.53422
N         90.21343       41.47724       73.10360
C         91.42147       41.36913       73.91417
C         91.32252       42.08220       75.27280
O         92.21129       41.86917       76.08524
C         92.63792       41.83418       73.09130
C         92.59965       43.25985       72.60237
O         93.50120       43.66284       71.88678
O         91.59430       44.09533       72.91979
H         89.83821       42.40033       72.91126
H         91.59709       40.29600       74.14918
H         92.69619       41.17902       72.19484
H         93.56455       41.68624       73.68550
N         90.29859       42.92886       75.60220
C         90.12654       43.52115       76.92390
C         90.25276       45.03335       76.94494
O         89.83921       45.61794       77.93779
H         89.57439       43.15680       74.91386
H         90.83623       43.11183       77.67415
H         89.10470       43.24694       77.26816
N         90.87327       45.73472       75.94962
C         91.03761       47.18908       75.97660
C         90.51655       47.84407       74.70754
O         90.08302       47.16146       73.78754
C         92.52607       47.56624       76.16876
C         93.04444       47.23568       77.57312
C         94.39994       47.86342       77.79557
N         95.46639       47.51488       77.03982
O         94.53021       48.71389       78.66412
H         91.29110       45.21926       75.16282
H         90.46030       47.63768       76.81564
H         92.64006       48.66373       76.06007
H         93.15381       47.08611       75.38879
H         93.08900       46.13779       77.73104
H         92.34085       47.66994       78.31859
H         95.38181       46.80212       76.30175
H         96.38138       47.96516       77.19298
N         90.54159       49.20555       74.61368
C         90.10742       49.98115       73.46159
C         91.29800       50.79451       72.96053
O         91.95320       51.43996       73.76988
C         88.94129       50.92235       73.87222
C         88.35457       51.62677       72.63732
C         87.81804       50.15767       74.59302
H         90.88019       49.74703       75.42465
H         89.73271       49.31033       72.65579
H         89.32448       51.69138       74.58016
H         89.12919       52.21967       72.11141
H         87.93624       50.87855       71.92868
H         87.54050       52.31968       72.93731
H         87.00414       50.85800       74.87909
H         87.39864       49.35914       73.94487
H         88.19686       49.69778       75.53061
N         91.61232       50.84450       71.63605
C         92.74354       51.58502       71.08783
C         92.23632       52.80875       70.33438
O         91.04552       53.06024       70.36103
C         93.62146       50.63009       70.23349
C         93.06052       50.29773       68.86891
N         92.71296       49.04072       68.52462
O         92.96127       51.18134       68.03982
H         90.99250       50.37952       70.97046
H         93.39161       51.95190       71.91342
H         93.80167       49.70323       70.82225
H         94.61416       51.09655       70.05791
H         92.77792       48.27341       69.20027
H         92.36438       48.84107       67.57418
N         93.07602       53.62952       69.65279
C         92.63245       54.82869       68.93273
C         91.60613       54.51209       67.84195
O         90.50771       55.04666       67.88995
C         93.87239       55.52434       68.34080
C         93.57040       56.74916       67.51599
C         92.90047       57.85364       68.06797
C         93.98979       56.79849       66.17632
C         92.66231       58.99161       67.28951
C         93.75667       57.93637       65.40399
C         93.09492       59.03974       65.95900
O         92.87625       60.14956       65.22604
H         94.08064       53.39231       69.65675
H         92.15803       55.52383       69.66144
H         94.42699       54.78735       67.71916
H         94.54102       55.81930       69.17820
H         92.56849       57.83838       69.09834
H         94.50974       55.95947       65.73017
H         92.14914       59.84039       67.72339
H         94.09757       57.95962       64.37675
H         93.17931       60.22603       64.30976
N         91.90488       53.64343       66.83769
C         90.99986       53.26063       65.74891
C         89.62715       52.85994       66.26475
O         88.63151       53.38164       65.78184
C         91.65960       52.10283       64.95528
C         90.83543       51.58725       63.76701
C         91.60434       50.53242       63.01768
O         92.67239       50.80699       62.49271
O         91.11881       49.28020       62.91762
H         92.84053       53.21702       66.85877
H         90.86365       54.12426       65.06143
H         91.85460       51.24511       65.63702
H         92.63729       52.47250       64.57476
H         90.60162       52.42035       63.07172
H         89.88228       51.14921       64.13576
N         89.50776       51.94459       67.25614
C         88.22817       51.47624       67.78410
C         87.42950       52.63414       68.36392
O         86.31554       52.87097       67.91791
C         88.48595       50.37376       68.82734
C         89.18750       49.17053       68.15850
C         89.56630       48.14026       69.15570
O         89.07897       46.91055       69.05646
O         90.29558       48.40597       70.09095
H         90.38287       51.57567       67.65361
H         87.63216       51.01836       66.96259
H         87.52748       50.03307       69.27972
H         89.12151       50.78885       69.63859
H         90.11503       49.46428       67.64109
H         88.50818       48.72250       67.40471
N         87.95652       53.42483       69.33385
C         87.27504       54.58119       69.87100
H         86.33077       54.27556       70.36604
H         87.92568       55.08534       70.61897
H         87.05895       55.30462       69.05587
H         88.89032       53.21554       69.68491
Ca        89.25817       45.87523       70.99372
O         93.34313       46.90619       72.75227
H         94.19218       47.41380       72.72124
H         93.60886       46.00935       73.07491
O         93.62841       46.05430       69.99203
H         93.08034       45.59611       69.30929
H         94.30566       46.55249       69.46944

Ca 1.0



