%chk=holoCaM.loop3.water2.frame364.chk
%nprocshared=20
%mem=10GB
%nosave
#b3lyp/svp scf=(tight,noincore,xqc) Test 
#IOP(5/87=12) Density=Current Pop=(MK,readradii) iop(6/33=2) iop(6/42=6)

holoCaM.loop3.water2.frame364 

   0  1 
C         93.52509       40.71711       62.27596
C         93.23397       40.87659       60.81020
O         93.70788       41.82603       60.20476
H         93.14989       41.60493       62.82682
H         93.02422       39.81685       62.69434
H         94.61769       40.61564       62.43632
N         92.46510       39.96123       60.16695
C         92.09075       40.06054       58.76051
C         91.07132       41.18313       58.58192
O         90.11305       41.20618       59.34281
C         91.51123       38.70348       58.33020
C         91.32088       38.57452       56.85630
O         90.92064       37.51899       56.41157
O         91.62672       39.57418       56.01366
H         92.13952       39.14258       60.70650
H         93.00378       40.22873       58.14735
H         90.55123       38.50590       58.85550
H         92.23717       37.90885       58.61412
N         91.19391       42.13772       57.60591
C         90.30526       43.30339       57.52955
C         89.23899       43.22368       56.43591
O         88.31116       44.01900       56.50214
C         91.13768       44.59328       57.38152
C         92.24859       44.84724       58.42826
C         91.80317       45.30756       59.83302
C         91.24499       44.21528       60.75858
N         90.94221       44.75813       62.08182
H         91.95975       42.05644       56.92140
H         89.69485       43.35380       58.44303
H         90.47270       45.48314       57.34161
H         91.64922       44.51791       56.39505
H         92.82823       45.70434       58.01814
H         92.95465       43.99093       58.49234
H         91.07999       46.14526       59.73494
H         92.71332       45.70229       60.33717
H         91.99990       43.41625       60.86913
H         90.32357       43.76928       60.36151
H         90.19589       45.48666       62.00451
H         90.59814       43.98503       62.69660
H         91.80079       45.17274       62.51151
N         89.25945       42.29764       55.43607
C         88.13418       42.07902       54.51337
C         87.62958       40.63680       54.58272
O         86.67074       40.32926       53.88778
C         88.46758       42.51356       53.06315
C         89.82040       42.06901       52.61686
O         90.20268       40.78964       52.73280
O         90.65589       42.91258       52.33086
H         90.08981       41.69676       55.34134
H         87.25629       42.69646       54.80590
H         88.46381       43.62659       53.03079
H         87.68031       42.16658       52.36032
N         88.16618       39.71424       55.43523
C         87.62405       38.37859       55.60622
C         87.73464       37.52857       54.36587
O         86.71502       37.04701       53.89246
H         88.94903       39.96643       56.05069
H         86.56276       38.45513       55.93007
H         88.18344       37.86304       56.41641
N         88.95263       37.26138       53.81500
C         89.14429       36.34919       52.68868
C         89.99857       35.13744       53.07204
O         90.19094       34.27417       52.22825
C         89.70395       37.12136       51.47008
C         91.12105       37.63531       51.61037
N         92.04861       37.35545       50.66537
O         91.42955       38.33984       52.55632
H         89.77750       37.71275       54.23086
H         88.15946       35.94460       52.36943
H         89.03486       37.98955       51.28551
H         89.64696       36.46619       50.57393
H         91.81453       36.78042       49.84336
H         93.00573       37.72875       50.74442
N         90.54373       35.00702       54.32046
C         91.37607       33.89595       54.75167
C         92.83208       34.29927       54.89815
O         93.62822       33.45102       55.27629
H         90.39445       35.73609       55.01881
H         91.34769       33.06580       54.01441
H         90.97838       33.50803       55.71425
N         93.27271       35.53215       54.50995
C         94.68070       35.86951       54.34011
C         95.00865       37.22136       54.94393
O         94.27117       38.17362       54.72463
C         94.94608       35.91913       52.82389
C         94.73154       34.55548       52.20602
C         93.59358       34.29348       51.42704
C         95.66059       33.52480       52.42475
C         93.38399       33.02694       50.87823
C         95.45706       32.25954       51.86429
C         94.31488       32.00652       51.09022
O         94.10052       30.79072       50.54877
H         92.59564       36.22066       54.15025
H         95.35658       35.09657       54.76901
H         95.97876       36.26152       52.59343
H         94.24671       36.65919       52.38265
H         92.85536       35.05840       51.26123
H         96.54562       33.70421       53.02237
H         92.49429       32.83933       50.29006
H         96.18539       31.47704       52.03446
H         94.72053       30.05750       50.66828
N         96.18816       37.39822       55.60401
C         96.68093       38.69594       56.05076
C         97.80691       39.10819       55.11908
O         98.74388       38.34415       54.92894
C         97.12659       38.65156       57.54172
C         95.90410       38.32918       58.44061
C         97.76862       39.99679       57.95330
C         96.23964       38.19103       59.92738
H         96.82346       36.59060       55.70261
H         95.88674       39.46191       55.97543
H         97.89337       37.85419       57.66194
H         95.45633       37.36654       58.11422
H         95.13636       39.12420       58.32493
H         98.65255       40.22343       57.32304
H         97.03839       40.82773       57.85594
H         98.14643       39.96713       58.99388
H         96.61558       39.14302       60.35345
H         95.31869       37.92418       60.48734
H         96.99553       37.39206       60.07857
N         97.78226       40.33694       54.52778
C         98.80834       40.81858       53.61041
C         99.75161       41.76499       54.32365
O         99.57169       42.00844       55.50366
C         98.13675       41.50625       52.40392
O         97.43436       42.65651       52.80313
H         97.02885       40.98894       54.79059
H         99.42148       39.96927       53.23847
H         97.46264       40.79475       51.87538
H         98.89705       41.81591       51.65799
H         96.49857       42.38303       52.98610
N        100.80766       42.31828       53.66766
C        101.74103       43.25279       54.29079
C        101.03251       44.52150       54.73202
O        101.20038       44.93023       55.87184
C        102.86146       43.60950       53.30950
H        100.95547       42.06017       52.67978
H        102.22624       42.76875       55.16890
H        102.45484       44.09705       52.39845
H        103.58746       44.29654       53.79531
H        103.40462       42.68704       53.01115
N        100.20261       45.18089       53.87359
C         99.48691       46.41203       54.20634
C         98.67674       46.26264       55.48040
O         98.84091       47.06691       56.38712
C         98.56197       46.80420       53.04646
H        100.05831       44.76911       52.93815
H        100.22240       47.23465       54.34826
H         98.03097       47.75149       53.27937
H         99.15689       46.95405       52.12037
H         97.80832       46.00919       52.85574
N         97.81474       45.22213       55.62924
C         97.04145       44.97091       56.84532
C         97.95607       44.87780       58.05344
O         97.72525       45.58446       59.02452
C         96.22834       43.67062       56.68573
C         95.12103       43.85020       55.63533
C         94.35854       42.59592       55.34692
O         94.63798       41.53261       55.87259
O         93.31660       42.67002       54.51031
H         97.74762       44.55133       54.84869
H         96.32492       45.80491       57.02359
H         95.73995       43.40376       57.64960
H         96.91404       42.84431       56.39764
H         95.53710       44.19936       54.66863
H         94.40770       44.61922       56.00422
N         99.03946       44.05775       58.04030
C         99.98310       43.93967       59.13065
H        100.98305       44.27712       58.78367
H         99.69118       44.54882       60.01061
H        100.05262       42.87612       59.43922
H         99.23033       43.51305       57.19785
Ca        92.20811       40.90223       53.69838
O         94.84785       39.55000       52.16031
H         94.83892       39.77982       51.19754
H         95.65662       38.99039       52.27428
O         94.14231       42.56301       51.66946
H         93.32443       43.11145       51.76761
H         94.16564       42.32042       50.71039

Ca 1.0



