%chk=holoCaM-CaMKII.loop4.water2.frame88.chk
%nprocshared=20
%mem=10GB
%nosave
#b3lyp/svp scf=(tight,noincore,xqc) Test 
#IOP(5/87=12) Density=Current Pop=(MK,readradii) iop(6/33=2) iop(6/42=6)

holoCaM-CaMKII.loop4.water2.frame88 

   -3  1 
C          5.82688       45.69657       47.34586
C          6.51976       45.17332       46.12422
O          7.49275       45.77243       45.69202
H          4.96058       45.05918       47.62439
H          6.54054       45.71032       48.19574
H          5.46071       46.72555       47.15216
N          6.07839       44.03929       45.51862
C          6.72524       43.46204       44.34997
C          6.60682       44.40331       43.15736
O          5.50851       44.85231       42.85962
C          6.08905       42.09977       44.03191
C          6.87264       41.31187       43.02666
O          8.03375       41.76013       42.51654
O          6.47063       40.21518       42.70496
H          5.26526       43.55072       45.92645
H          7.79191       43.26549       44.60499
H          5.04337       42.23859       43.67902
H          6.06781       41.48292       44.95749
N          7.70257       44.70698       42.40743
C          7.69161       45.61979       41.26859
C          7.72824       44.79590       39.98678
O          6.76651       44.83350       39.23181
C          8.88605       46.62204       41.39682
C          8.89256       47.38197       42.75090
C          8.98335       47.58809       40.20822
C          7.68847       48.29544       42.98224
H          8.58338       44.23377       42.63597
H          6.73975       46.19357       41.24963
H          9.82814       46.04433       41.38125
H          9.81619       47.99822       42.81567
H          8.94148       46.64824       43.58380
H          8.07468       48.21464       40.11769
H          9.87165       48.24593       40.33293
H          9.12194       47.02220       39.26318
H          7.64295       49.09088       42.21117
H          6.74280       47.71719       42.97891
H          7.78823       48.78488       43.97395
N          8.79926       44.01008       39.68839
C          8.87603       43.14071       38.50942
C          7.88049       41.95813       38.51343
O          7.85781       41.23770       37.52454
C         10.32305       42.62117       38.30054
C         10.88583       41.85572       39.46827
O         10.24052       41.84872       40.64852
O         11.95183       41.27319       39.35594
H          9.61134       44.07395       40.31398
H          8.64360       43.75758       37.61250
H         11.00477       43.47392       38.09204
H         10.32886       41.96680       37.40100
N          6.99807       41.71652       39.52927
C          5.94144       40.70867       39.44428
C          6.34751       39.24404       39.60016
O          5.46039       38.41126       39.47235
H          6.97385       42.34807       40.33781
H          5.40267       40.84491       38.48088
H          5.20367       40.90672       40.25249
N          7.61623       38.83180       39.89719
C          7.98991       37.41244       40.07293
C          7.49824       36.76152       41.38653
O          7.96019       35.67362       41.70200
C          9.51979       37.23275       39.89573
C         10.37211       37.92142       40.91673
O         11.57780       37.99426       40.74309
O          9.82151       38.54284       41.96709
H          8.35483       39.54823       39.95027
H          7.56983       36.82687       39.22497
H          9.78056       37.65768       38.90097
H          9.78934       36.15508       39.88119
N          6.52819       37.32053       42.16555
C          5.98015       36.71812       43.37377
C          6.79628       36.92352       44.64156
O          6.29418       36.53441       45.68761
H          6.04683       38.15423       41.83330
H          5.75880       35.64202       43.20272
H          5.00676       37.21717       43.57662
N          8.02875       37.51269       44.66140
C          8.78620       37.75069       45.89498
C          9.23576       39.19951       46.02541
O          9.01857       39.99105       45.11620
C          9.99043       36.78917       45.96843
C          9.51012       35.36049       46.27531
C         10.65373       34.40711       46.50224
N         10.73545       33.24736       45.81097
O         11.49696       34.66583       47.34872
H          8.46331       37.78193       43.77259
H          8.14785       37.56812       46.78776
H         10.65017       37.09000       46.80892
H         10.58842       36.83646       45.03074
H          8.84593       34.99247       45.46431
H          8.92290       35.38846       47.21907
H         10.01832       32.99296       45.11658
H         11.50581       32.58684       45.99186
N          9.84013       39.61735       47.18214
C         10.25567       40.99210       47.44227
C         11.74987       41.01867       47.76188
O         12.16046       40.43472       48.75678
C          9.43435       41.57916       48.62972
C          9.74749       43.06746       48.85012
C          7.92087       41.42040       48.41072
H          9.97568       38.93394       47.94384
H         10.05311       41.62048       46.54652
H          9.69355       41.02141       49.55782
H         10.82415       43.22335       49.05428
H          9.45870       43.66114       47.95691
H          9.18078       43.45329       49.72395
H          7.64701       40.34787       48.32444
H          7.36568       41.83111       49.28182
H          7.59470       41.95238       47.49189
N         12.62240       41.67753       46.94927
C         14.06427       41.77864       47.19318
C         14.30724       42.68107       48.40962
O         13.37598       43.33492       48.85739
C         14.71898       42.37918       45.90417
C         16.22273       42.30216       45.71426
N         16.73845       41.74355       44.59321
O         16.98586       42.79985       46.52142
H         12.24130       42.10970       46.10298
H         14.45210       40.74910       47.35629
H         14.41975       43.43559       45.81833
H         14.27185       41.85771       45.03305
H         16.12834       41.35923       43.85749
H         17.75803       41.72954       44.44049
N         15.54074       42.80808       48.97110
C         15.85526       43.80509       49.99728
C         15.57133       45.20671       49.46537
O         14.98383       46.00964       50.17517
C         17.34004       43.68610       50.40281
C         17.72038       44.63216       51.52048
C         17.11256       44.52510       52.78431
C         18.69819       45.62020       51.31451
C         17.47558       45.39080       53.82044
C         19.05980       46.48491       52.35277
C         18.44952       46.37183       53.61035
O         18.79177       47.19533       54.62182
H         16.29418       42.19397       48.63633
H         15.23130       43.61496       50.89841
H         17.97084       43.87059       49.50488
H         17.54373       42.65005       50.75031
H         16.36160       43.76844       52.97200
H         19.18289       45.72220       50.35167
H         17.00137       45.29599       54.78945
H         19.81588       47.24028       52.17934
H         19.46486       47.88344       54.52065
N         15.91884       45.53476       48.18852
C         15.60953       46.80683       47.54299
C         14.11130       47.06125       47.54827
O         13.68191       48.10717       48.01444
C         16.08302       46.80427       46.06384
C         17.60623       46.65885       45.89678
C         18.03622       46.67020       44.45050
O         19.34349       46.55306       44.15127
O         17.22323       46.77711       43.54434
H         16.38924       44.81548       47.63138
H         16.12664       47.63430       48.07730
H         15.77760       47.76656       45.59461
H         15.58378       45.97656       45.51117
H         17.95448       45.70283       46.33725
H         18.11073       47.49673       46.42186
N         13.26107       46.14282       47.00821
C         11.82274       46.35171       46.86117
C         11.10383       46.42941       48.20652
O          9.92596       46.76012       48.21769
C         11.19083       45.23812       45.98233
C         11.86795       45.12449       44.59854
C         11.26203       44.05922       43.73339
O         10.95816       44.31635       42.58493
O         11.12890       42.79835       44.17509
H         13.67634       45.27803       46.65352
H         11.67881       47.31864       46.32917
H         10.11113       45.45589       45.83830
H         11.28488       44.26571       46.50985
H         12.93083       44.85129       44.71140
H         11.82226       46.10183       44.07017
N         11.73485       46.13775       49.37980
C         11.08842       46.24733       50.66805
H         10.20298       45.58121       50.71285
H         11.79919       45.94920       51.46990
H         10.78021       47.29896       50.84690
H         12.70766       45.81883       49.37596
Ca        10.72299       40.51106       42.35719
O         13.32443       41.93303       42.03843
H         13.72073       41.24547       41.44631
H         13.97684       42.67679       42.03233
O         12.73483       39.24007       44.25259
H         12.70174       38.60260       43.49575
H         13.36664       39.94023       43.95338

Ca 1.0



