%chk=holoCaM-CaMKII.loop4.water2.frame179.chk
%nprocshared=20
%mem=10GB
%nosave
#b3lyp/svp scf=(tight,noincore,xqc) Test 
#IOP(5/87=12) Density=Current Pop=(MK,readradii) iop(6/33=2) iop(6/42=6)

holoCaM-CaMKII.loop4.water2.frame179 

   -3  1 
C         91.76775       61.28512        9.58020
C         90.56274       60.66617       10.22286
O         90.48446       59.45163       10.31322
H         92.48040       60.50583        9.23729
H         91.45156       61.89475        8.70772
H         92.28126       61.94216       10.31422
N         89.58235       61.46591       10.71682
C         88.38820       60.96519       11.38806
C         87.49856       60.19621       10.41042
O         87.14550       60.75472        9.38104
C         87.61976       62.16253       11.98411
C         86.51248       61.78325       12.91982
O         85.74727       62.75651       13.43857
O         86.32065       60.62407       13.24880
H         89.71842       62.48687       10.64030
H         88.70954       60.32595       12.23617
H         87.21159       62.78407       11.15808
H         88.31873       62.79014       12.57935
N         87.08014       58.92241       10.67977
C         86.24763       58.12335        9.76862
C         84.83278       57.90000       10.33050
O         83.98082       57.43420        9.58691
C         87.01091       56.79004        9.44993
C         88.33084       57.12630        8.70460
C         86.17444       55.77999        8.63882
C         89.27162       55.93656        8.50422
H         87.36979       58.49245       11.57070
H         86.08572       58.67975        8.81926
H         87.25980       56.30125       10.41945
H         88.90042       57.86615        9.29483
H         88.09868       57.58192        7.71701
H         86.73821       54.84359        8.46010
H         85.27960       55.45875        9.20775
H         85.86577       56.21260        7.66454
H         90.20169       56.28923        8.00975
H         89.54181       55.49179        9.48529
H         88.82578       55.16042        7.85214
N         84.49907       58.22211       11.61146
C         83.16425       58.03560       12.19210
C         82.59128       59.33440       12.78210
O         81.49625       59.29125       13.32583
C         83.19146       56.87531       13.21959
C         84.16033       57.04995       14.35378
O         84.26037       56.18705       15.20929
O         84.91155       58.15736       14.42593
H         85.23673       58.58848       12.21563
H         82.44203       57.70993       11.41104
H         83.47166       55.94388       12.68143
H         82.16928       56.73151       13.63431
N         83.22746       60.53571       12.64393
C         82.64675       61.81458       13.03387
C         82.58919       62.13557       14.52102
O         82.10489       63.21876       14.82035
H         84.10360       60.57939       12.11018
H         81.62612       61.89085       12.59863
H         83.25252       62.62281       12.57038
N         83.03721       61.30648       15.51298
C         82.90674       61.67801       16.93218
C         83.73372       62.89671       17.34345
O         83.47921       63.42411       18.41695
C         83.16684       60.48342       17.87615
C         84.52467       59.85220       17.77088
O         84.74068       58.80886       18.36614
O         85.46610       60.33815       16.94828
H         83.41530       60.38250       15.25983
H         81.83980       61.95407       17.08876
H         82.42656       59.69698       17.61288
H         82.99001       60.77995       18.93208
N         84.73522       63.39380       16.56536
C         85.47881       64.60698       16.88016
C         86.92847       64.34289       17.22319
O         87.67502       65.30706       17.32797
H         84.99166       62.89766       15.70537
H         85.03220       65.16561       17.72983
H         85.42714       65.26724       15.98695
N         87.39749       63.08429       17.45756
C         88.78386       62.78306       17.78923
C         89.36798       61.81729       16.77714
O         88.65810       61.35661       15.88952
C         88.87276       62.16141       19.20224
C         88.41767       63.12263       20.30663
C         88.66706       62.52801       21.67207
N         88.05323       61.38604       22.06229
O         89.44003       63.08692       22.43614
H         86.74585       62.29276       17.41977
H         89.40670       63.70422       17.76694
H         89.92852       61.89160       19.41615
H         88.26571       61.23331       19.24076
H         87.33891       63.36323       20.19454
H         89.00079       64.06549       20.21653
H         87.39361       60.89811       21.43986
H         88.23883       60.98756       22.99521
N         90.67912       61.46119       16.86614
C         91.31691       60.49232       15.99103
C         91.80243       59.34026       16.85108
O         92.67389       59.53910       17.68860
C         92.46867       61.17217       15.20090
C         93.25203       60.16919       14.34455
C         91.91690       62.28205       14.29184
H         91.26134       61.88770       17.60452
H         90.58756       60.09547       15.25136
H         93.18147       61.62983       15.92309
H         93.72186       59.40318       14.99059
H         92.58738       59.67496       13.60557
H         94.07231       60.68418       13.80082
H         92.74777       62.78227       13.75008
H         91.20974       61.85920       13.54471
H         91.38681       63.05407       14.88742
N         91.25149       58.10193       16.71180
C         91.66832       56.94197       17.50010
C         93.09179       56.54665       17.09702
O         93.61213       57.10952       16.14829
C         90.67192       55.78039       17.20120
C         90.63287       54.59775       18.14239
N         89.82166       53.55286       17.85655
O         91.27847       54.58400       19.17696
H         90.48399       57.98967       16.03166
H         91.60202       57.21956       18.57527
H         90.85699       55.42424       16.16500
H         89.63917       56.18176       17.23456
H         89.24788       53.55177       17.00014
H         89.76466       52.74281       18.49149
N         93.77831       55.56377       17.73615
C         95.02855       55.01058       17.22488
C         94.75235       54.33607       15.88371
O         95.44485       54.61349       14.91454
C         95.58344       53.98644       18.23785
C         96.92256       53.40858       17.84386
C         98.06008       54.23026       17.74361
C         97.05091       52.03087       17.60428
C         99.30341       53.67868       17.41532
C         98.29324       51.48276       17.27392
C         99.42532       52.30472       17.18217
O        100.63184       51.78563       16.87704
H         93.38887       55.15828       18.59101
H         95.78144       55.82274       17.11209
H         94.83558       53.17422       18.36977
H         95.71079       54.48269       19.22492
H         97.99027       55.29421       17.93250
H         96.19008       51.37832       17.67754
H        100.17495       54.31851       17.34963
H         98.37496       50.41810       17.09596
H        100.75967       50.83883       16.72097
N         93.70520       53.46279       15.76586
C         93.33490       52.75526       14.53480
C         92.90692       53.66927       13.38288
O         92.65817       53.14694       12.30457
C         92.17299       51.77139       14.81164
C         92.55173       50.65902       15.79984
C         91.38550       49.73938       16.01914
O         91.46871       48.55841       15.72252
O         90.24162       50.21391       16.54958
H         93.14532       53.28763       16.61327
H         94.21717       52.17227       14.18939
H         91.87566       51.27588       13.86029
H         91.29712       52.34385       15.19351
H         92.85147       51.07601       16.78261
H         93.41062       50.08609       15.38573
N         92.82089       55.02162       13.50907
C         92.48635       55.92024       12.41257
C         93.75298       56.63513       11.98712
O         94.12947       56.52754       10.82788
C         91.37398       56.89544       12.84898
C         90.04342       56.15987       13.08946
C         88.93925       57.07216       13.55070
O         87.82494       56.61485       13.74600
O         89.15794       58.38406       13.75857
H         93.04128       55.45746       14.40813
H         92.11993       55.36264       11.52074
H         91.21366       57.64754       12.04787
H         91.68703       57.42721       13.77378
H         90.17941       55.37022       13.85709
H         89.72532       55.67963       12.13861
N         94.50000       57.33393       12.88183
C         95.76275       57.94267       12.53012
H         96.46600       57.16200       12.16678
H         95.61297       58.70855       11.74187
H         96.21012       58.42509       13.42546
H         94.18532       57.40746       13.85348
Ca        86.49753       58.69236       15.88845
O         88.43431       58.67689       18.19891
H         88.13124       57.78964       17.88599
H         87.61839       59.08291       18.58325
O         86.89303       55.72762       16.63799
H         86.06877       55.89986       17.15933
H         86.63864       55.02399       15.98978

Ca 1.0



