%chk=holoCaM-CaMKII.loop1.water2.frame58.chk
%nprocshared=20
%mem=10GB
%nosave
#b3lyp/svp scf=(tight,noincore,xqc) Test 
#IOP(5/87=12) Density=Current Pop=(MK,readradii) iop(6/33=2) iop(6/42=6)

holoCaM-CaMKII.loop1.water2.frame58 

   0  1 
C         -4.92103       50.42295       84.17654
C         -6.03131       50.34878       85.17593
O         -5.79878       49.91870       86.29747
H         -3.97431       50.04285       84.61623
H         -5.17736       49.82527       83.27904
H         -4.77178       51.48483       83.88413
N         -7.27171       50.80317       84.84801
C         -8.33530       50.89097       85.83251
C         -8.78579       49.50486       86.29765
O         -9.28137       48.73329       85.48730
C         -9.53882       51.67244       85.26726
C        -10.47115       52.07627       86.36565
O        -11.54095       52.59021       86.09650
O        -10.10258       51.92356       87.65176
H         -7.42572       51.18078       83.89964
H         -7.91782       51.48359       86.67838
H        -10.06942       51.04394       84.51794
H         -9.21306       52.60594       84.76304
N         -8.62428       49.12429       87.59618
C         -8.99409       47.80397       88.10039
C        -10.50549       47.59006       88.10399
O        -10.97218       46.70578       87.39887
C         -8.46185       47.56415       89.53759
C         -6.92923       47.65235       89.64872
C         -6.42152       47.42784       91.08516
C         -6.64929       45.99367       91.59400
N         -6.08670       45.81826       92.93284
H         -8.15958       49.78579       88.22473
H         -8.51661       47.03932       87.44542
H         -8.79032       46.55016       89.84764
H         -8.90057       48.30239       90.24110
H         -6.60098       48.66693       89.34467
H         -6.45123       46.91899       88.96476
H         -6.90494       48.15782       91.77201
H         -5.32761       47.62496       91.09030
H         -6.15829       45.27868       90.89715
H         -7.73354       45.75842       91.63296
H         -6.56447       46.45655       93.60981
H         -6.23425       44.82916       93.23880
H         -5.06002       46.01773       92.92305
N        -11.32023       48.29743       88.94805
C        -12.73465       47.96661       89.13898
C        -13.63246       48.46467       88.01181
O        -14.81873       48.16618       88.04765
C        -13.23963       48.43032       90.53654
C        -13.17063       49.91370       90.77647
O        -13.31369       50.74978       89.74093
O        -12.70264       50.33565       91.82115
H        -10.89223       48.99997       89.56723
H        -12.82374       46.85755       89.16691
H        -12.61161       47.92946       91.30785
H        -14.28255       48.08821       90.69802
N        -13.15465       49.21521       86.97773
C        -13.99256       49.66649       85.88189
C        -15.05959       50.62810       86.34069
O        -16.23260       50.36314       86.11795
H        -12.15673       49.46475       86.93662
H        -14.44900       48.78758       85.37499
H        -13.36176       50.19750       85.13572
N        -14.70972       51.79884       86.94320
C        -15.66759       52.84317       87.29341
C        -15.47799       54.08430       86.42238
O        -16.26792       55.00843       86.55343
C        -15.61284       53.15040       88.81069
C        -14.32060       53.72655       89.32954
O        -14.19202       53.98026       90.64534
O        -13.38948       53.97074       88.58503
H        -13.71039       51.97168       87.11370
H        -16.70001       52.48943       87.08322
H        -15.81007       52.20438       89.35940
H        -16.42089       53.86881       89.06482
N        -14.47427       54.16837       85.49617
C        -14.30024       55.28015       84.57877
C        -13.05420       56.08495       84.86721
O        -12.75669       56.96822       84.07444
H        -13.79172       53.40807       85.39898
H        -15.15893       55.98392       84.61334
H        -14.24861       54.86467       83.54917
N        -12.33151       55.91731       86.01547
C        -11.23070       56.79714       86.39357
C         -9.99941       56.01351       86.81885
O        -10.10089       54.83447       87.11847
C        -11.69203       57.74577       87.52863
C        -12.90124       58.60100       87.10753
O        -11.98475       57.02898       88.70265
H        -12.63292       55.21350       86.69663
H        -10.93994       57.42532       85.52344
H        -10.86327       58.44685       87.76408
H        -12.84645       56.55383       88.57305
H        -13.18532       59.28939       87.93036
H        -12.65439       59.20029       86.20639
H        -13.78234       57.96259       86.87759
N         -8.78486       56.62704       86.85355
C         -7.53653       55.96921       87.23180
C         -6.94650       56.72398       88.41475
O         -6.80032       57.93683       88.34022
C         -6.56955       55.92034       86.00836
C         -7.21646       55.09060       84.86273
C         -5.20959       55.30751       86.41002
C         -6.42186       55.09512       83.55472
H         -8.73237       57.61642       86.56337
H         -7.71255       54.91217       87.53486
H         -6.39720       56.95980       85.65192
H         -8.21588       55.50915       84.62057
H         -7.35441       54.03870       85.19597
H         -4.49722       55.31086       85.56141
H         -4.73127       55.90128       87.21421
H         -5.33760       54.26207       86.76595
H         -5.42737       54.62099       83.67158
H         -6.97720       54.51420       82.78743
H         -6.29783       56.13555       83.18712
N         -6.55057       56.04989       89.53085
C         -5.99255       56.68310       90.72266
C         -4.48397       56.50163       90.73802
O         -3.94870       55.91470       89.81356
C         -6.62177       56.05904       91.99923
C         -8.14898       56.12781       92.00138
O         -6.22913       54.71592       92.10639
H         -6.58938       55.02507       89.51571
H         -6.19934       57.77596       90.71164
H         -6.24814       56.62659       92.88231
H         -6.23505       54.47979       93.07095
H         -8.56226       55.54899       91.14915
H         -8.53792       55.67933       92.94156
H         -8.49522       57.17902       91.93640
N         -3.72467       56.99309       91.75473
C         -2.27635       56.79871       91.82998
C         -1.91973       55.32157       91.94559
O         -1.15142       54.83855       91.12599
C         -1.66136       57.59330       93.00952
C         -1.74779       59.10435       92.75612
O         -2.30587       57.26536       94.21434
H         -4.19687       57.52538       92.50050
H         -1.80334       57.19002       90.89999
H         -0.58128       57.32383       93.07580
H         -1.76263       57.65192       94.94946
H         -1.20803       59.36107       91.81889
H         -2.80099       59.44126       92.66771
H         -1.26553       59.65514       93.59069
N         -2.43493       54.54616       92.94118
C         -2.09093       53.13548       93.12589
C         -2.39383       52.31839       91.88251
O         -1.54115       51.54367       91.47049
C         -2.82566       52.53926       94.35105
C         -2.42848       53.17717       95.70349
C         -0.94861       52.95149       96.06793
C         -0.61138       53.53598       97.44643
N          0.79426       53.30297       97.78215
H         -3.10830       54.97921       93.58950
H         -1.00153       53.03941       93.30773
H         -2.60481       51.45047       94.41672
H         -3.92292       52.65230       94.20618
H         -3.05378       52.70482       96.49266
H         -2.65231       54.26448       95.70242
H         -0.28831       53.44027       95.32326
H         -0.73801       51.85952       96.07635
H         -1.25494       53.06315       98.22097
H         -0.80999       54.63098       97.44336
H          1.41558       53.75921       97.07491
H          0.99614       53.71335       98.72241
H          0.99200       52.27620       97.81285
N         -3.56499       52.47147       91.20588
C         -3.88227       51.73550       89.98059
C         -2.79707       51.97397       88.93784
O         -2.21669       51.01210       88.45400
C         -5.28873       52.11340       89.44821
C         -6.38221       51.76239       90.48493
C         -7.78351       52.05247       90.02904
O         -8.11030       53.17327       89.68043
O         -8.71818       51.08850       90.09892
H         -4.22963       53.17066       91.56292
H         -3.90918       50.64579       90.20565
H         -5.48611       51.54476       88.51349
H         -5.31683       53.19510       89.20377
H         -6.22546       52.33552       91.41377
H         -6.31140       50.68524       90.74343
N         -2.41659       53.23578       88.60529
C         -1.31787       53.51587       87.70642
H         -0.38327       53.05777       88.09758
H         -1.53632       53.11828       86.69465
H         -1.15830       54.61429       87.63660
H         -2.89001       54.02736       89.04458
Ca       -11.55813       52.04756       89.31585
O        -11.25717       55.34046       90.95869
H        -10.92852       55.11197       91.86314
H        -11.96143       56.01607       91.12252
O        -10.35186       52.49550       92.35796
H        -11.33081       52.62099       92.27883
H        -10.16653       52.59946       93.32475

Ca 1.0



