%chk=holoCaM.loop4.water3.frame149.chk
%nprocshared=20
%mem=10GB
%nosave
#b3lyp/svp scf=(tight,noincore,xqc) Test 
#IOP(5/87=12) Density=Current Pop=(MK,readradii) iop(6/33=2) iop(6/42=6)

holoCaM.loop4.water3.frame149 

   -3  1 
C          9.56916       87.75783       -8.03584
C         10.22285       88.28875       -6.79515
O         11.41490       88.07302       -6.64180
H          8.49412       88.02561       -8.08046
H         10.07814       88.19081       -8.92447
H          9.67157       86.65296       -8.07003
N          9.51377       89.00047       -5.86710
C         10.13159       89.59581       -4.68193
C          9.08614       90.26189       -3.79238
O          8.38780       91.14585       -4.27104
C         11.16440       90.66469       -5.10924
C         11.85398       91.26383       -3.92340
O         12.57759       90.47819       -3.10426
O         11.76359       92.46032       -3.69960
H          8.50161       89.12991       -6.02032
H         10.64496       88.79421       -4.10564
H         10.65032       91.46005       -5.69410
H         11.95378       90.23040       -5.75176
N          8.95639       89.91242       -2.47486
C          8.00611       90.55801       -1.56391
C          8.68624       91.26730       -0.37958
O          7.97988       91.97231        0.32754
C          6.92279       89.53887       -1.07908
C          7.52706       88.42550       -0.17879
C          6.17326       88.95552       -2.29382
C          6.50680       87.40435        0.33268
H          9.55302       89.15927       -2.11227
H          7.46764       91.36140       -2.11309
H          6.17518       90.09693       -0.47165
H          7.99643       88.90021        0.70924
H          8.30903       87.86927       -0.72372
H          5.75087       89.77531       -2.91259
H          6.85070       88.34189       -2.92492
H          5.31839       88.32537       -1.97434
H          7.01438       86.68515        1.01031
H          5.69236       87.90959        0.89256
H          6.07531       86.81496       -0.50267
N         10.01236       91.10815       -0.06558
C         10.64734       91.72917        1.11142
C         11.99853       92.41552        0.81203
O         12.55368       93.00012        1.73217
C         10.79498       90.67547        2.23621
C         11.48352       89.45657        1.72535
O         12.66743       89.57768        1.11523
O         10.89571       88.38648        1.69704
H         10.57304       90.44420       -0.61570
H          9.98929       92.52327        1.52627
H          9.78019       90.37833        2.58387
H         11.34190       91.09883        3.10493
N         12.57497       92.42525       -0.42697
C         13.78818       93.17630       -0.76234
C         15.11317       92.68313       -0.17624
O         16.11419       93.34019       -0.42233
H         12.08447       91.96677       -1.19959
H         13.63417       94.23495       -0.45982
H         13.91449       93.16384       -1.86665
N         15.21947       91.56254        0.58912
C         16.46899       91.10244        1.20207
C         17.58502       90.77376        0.20660
O         18.70466       91.20751        0.44397
C         16.24009       89.92572        2.18867
C         15.63847       88.65752        1.65068
O         15.24100       88.57284        0.50463
O         15.50269       87.60115        2.47328
H         14.36945       91.03794        0.78244
H         16.84985       91.91965        1.85602
H         15.57236       90.27148        3.00666
H         17.22250       89.66692        2.64022
N         17.37324       90.02135       -0.91187
C         18.42831       89.63278       -1.84380
C         18.45521       88.13575       -2.14003
O         19.23392       87.73650       -2.99109
H         16.41184       89.74896       -1.14701
H         19.43395       89.94541       -1.48520
H         18.23675       90.15242       -2.80617
N         17.62562       87.25555       -1.50425
C         17.52309       85.82922       -1.81799
C         16.08967       85.51073       -2.23218
O         15.27532       86.41952       -2.28473
C         17.88614       84.99778       -0.57291
C         19.31900       85.23816       -0.08999
C         19.62274       84.32926        1.07374
N         19.91257       84.83500        2.29404
O         19.60010       83.11744        0.91265
H         17.01056       87.59762       -0.76252
H         18.20297       85.54573       -2.65079
H         17.78906       83.91910       -0.81593
H         17.17801       85.23460        0.25277
H         19.43144       86.30275        0.20812
H         20.04075       85.02486       -0.90822
H         19.92979       85.85206        2.45561
H         20.11086       84.20384        3.08454
N         15.70042       84.22388       -2.50237
C         14.31923       83.87315       -2.81713
C         13.75722       83.02230       -1.68542
O         14.21116       81.90548       -1.48467
C         14.22784       83.14810       -4.18909
C         12.77032       82.81630       -4.55092
C         14.83653       84.00407       -5.30992
H         16.38845       83.46080       -2.44962
H         13.70910       84.79270       -2.89211
H         14.80187       82.19623       -4.13657
H         12.72510       82.28746       -5.52646
H         12.31695       82.14922       -3.79228
H         12.16454       83.74465       -4.62290
H         14.77618       83.46356       -6.27904
H         14.29404       84.96806       -5.40573
H         15.90797       84.21235       -5.10796
N         12.76401       83.51884       -0.88901
C         12.13117       82.76630        0.19456
C         11.29661       81.63519       -0.38400
O         11.13562       81.56737       -1.58990
C         11.24228       83.73958        1.02024
C         10.51467       83.15254        2.20253
N         11.19003       82.59310        3.23192
O          9.29491       83.21012        2.24279
H         12.45343       84.48312       -1.05614
H         12.92769       82.35678        0.85381
H         10.49612       84.19332        0.33820
H         11.87738       84.55319        1.41744
H         12.21846       82.54537        3.22547
H         10.67855       82.20779        4.03984
N         10.74365       80.69245        0.42114
C          9.87288       79.63248       -0.07400
C          8.56088       80.19573       -0.61417
O          8.22848       79.86766       -1.74510
C          9.73508       78.49475        0.96917
C          9.33406       78.90701        2.36521
C          8.00878       79.22997        2.68337
C         10.31162       78.95025        3.37765
C          7.67069       79.60968        3.98797
C          9.97504       79.33733        4.67419
C          8.65570       79.67173        4.98492
O          8.34733       80.04770        6.24184
H         10.97667       80.71846        1.42104
H         10.37802       79.12256       -0.92771
H         10.75631       78.05609        1.03600
H          9.08070       77.67625        0.59820
H          7.23810       79.17926        1.92571
H         11.34319       78.70007        3.16023
H          6.64400       79.85655        4.22429
H         10.74360       79.37921        5.43581
H          7.44788       80.29414        6.49888
N          7.77797       81.06863        0.09291
C          6.52175       81.59377       -0.45677
C          6.73559       82.39644       -1.73840
O          5.78729       82.54781       -2.49615
C          5.72460       82.44904        0.55781
C          5.30584       81.64885        1.80037
C          4.41015       82.44895        2.70251
O          4.78066       82.70243        3.97225
O          3.32921       82.84859        2.29900
H          8.07889       81.35307        1.03383
H          5.89219       80.71529       -0.72166
H          4.79806       82.80420        0.05387
H          6.31691       83.34055        0.86473
H          6.20716       81.35338        2.36687
H          4.75718       80.73310        1.49170
N          7.93763       82.96131       -2.03803
C          8.20063       83.66018       -3.29454
C          8.35046       82.66657       -4.42520
O          7.72619       82.83645       -5.46210
C          9.50398       84.46366       -3.20854
C          9.39351       85.58829       -2.18272
C         10.67209       86.34641       -2.06131
O         11.62576       86.12542       -2.78563
O         10.78637       87.23730       -1.07987
H          8.69737       82.89746       -1.34414
H          7.39378       84.39579       -3.51642
H          9.72293       84.92394       -4.19864
H         10.34663       83.79248       -2.93247
H          9.15596       85.16281       -1.18829
H          8.57970       86.29223       -2.45891
N          9.20363       81.61386       -4.28791
C          9.50808       80.66036       -5.32910
H         10.60949       80.63581       -5.47604
H          9.17207       79.65113       -5.01352
H          9.03134       80.92576       -6.29367
H          9.66930       81.47112       -3.38769
Ca        12.67512       88.32850       -0.70227
O         13.58210       86.06023        0.52303
H         14.56098       85.92631        0.51888
H         13.38456       86.56080        1.35402
O         13.62812       87.54459       -4.40391
H         12.69176       87.33430       -4.63538
H         14.09631       87.56259       -5.27510
O         15.33615       89.65795       -3.46756
H         15.52981       90.61963       -3.33484
H         15.59000       89.48005       -4.40714

Ca 1.0



