%chk=holoCaM.loop1.water2.frame111.chk
%nprocshared=20
%mem=10GB
%nosave
#b3lyp/svp scf=(tight,noincore,xqc) Test 
#IOP(5/87=12) Density=Current Pop=(MK,readradii) iop(6/33=2) iop(6/42=6)

holoCaM.loop1.water2.frame111 

   0  1 
C         -2.48935        1.01288       85.86327
C         -1.93922        1.60304       84.60210
O         -2.56924        1.49044       83.55996
H         -3.46672        0.52076       85.67483
H         -1.77637        0.25297       86.24918
H         -2.62139        1.80954       86.62410
N         -0.73806        2.24261       84.62637
C         -0.10287        2.78806       83.43311
C          0.12694        1.65633       82.44354
O          0.77858        0.67684       82.77646
C          1.17642        3.53990       83.84137
C          1.98863        4.14237       82.72690
O          3.18671        3.91644       82.69609
O          1.46774        4.98821       81.81280
H         -0.25326        2.32485       85.53447
H         -0.78855        3.54061       82.99409
H          1.83548        2.86347       84.42954
H          0.86649        4.37456       84.50856
N         -0.46086        1.71965       81.21835
C         -0.52425        0.64169       80.25040
C          0.35089        0.99822       79.06315
O          1.29275        0.26374       78.79855
C         -2.02148        0.43187       79.89906
C         -2.32499       -0.72553       78.93815
C         -3.85054       -0.83553       78.72103
C         -4.26676       -1.92271       77.71535
N         -3.92350       -3.27102       78.16897
H         -0.95106        2.57616       80.96418
H         -0.13499       -0.29978       80.69859
H         -2.43534        1.37036       79.46714
H         -2.56569        0.23498       80.85044
H         -1.93528       -1.66693       79.37773
H         -1.82527       -0.53899       77.96386
H         -4.22369        0.13584       78.32723
H         -4.35916       -1.02690       79.69231
H         -3.79652       -1.72397       76.72757
H         -5.37126       -1.86449       77.58391
H         -4.36652       -3.46356       79.09671
H         -4.28710       -3.96307       77.47424
H         -2.88791       -3.38682       78.23368
N          0.13098        2.12193       78.31673
C          0.99913        2.49813       77.19816
C          2.40295        2.95583       77.62901
O          3.22127        3.19482       76.75189
C          0.31845        3.55001       76.29231
C          0.05874        4.88760       76.93081
O          0.40701        5.13442       78.20646
O         -0.47588        5.76762       76.27571
H         -0.69729        2.69916       78.52638
H          1.11808        1.59697       76.55527
H         -0.65223        3.13347       75.94345
H          0.95539        3.71323       75.39556
N          2.77097        3.07162       78.93992
C          4.12597        3.39780       79.36811
C          4.53295        4.82911       79.08588
O          5.54525        5.04817       78.43685
H          2.09109        2.86046       79.68334
H          4.84304        2.67960       78.91442
H          4.18822        3.26669       80.46726
N          3.80032        5.85452       79.59942
C          4.14940        7.27000       79.50034
C          4.24360        7.93972       80.87981
O          4.40019        9.15231       80.92874
C          3.15847        7.99668       78.56065
C          1.70139        7.97476       78.94507
O          0.89080        8.53713       78.22727
O          1.26527        7.33762       80.04428
H          2.94079        5.60860       80.09632
H          5.14590        7.39542       79.02128
H          3.24525        7.53279       77.55431
H          3.47656        9.05843       78.46824
N          4.21748        7.21734       82.04126
C          4.34905        7.81100       83.36704
C          3.10306        8.51778       83.86866
O          3.14599        9.00579       84.99052
H          4.18602        6.19143       81.99886
H          5.22546        8.49608       83.38736
H          4.54819        6.99652       84.09692
N          1.96021        8.60708       83.12946
C          0.73562        9.24861       83.60327
C         -0.45803        8.29753       83.55177
O         -0.35962        7.20801       83.00171
C          0.45990       10.53890       82.77741
C          1.47544       11.62542       83.13074
O          0.53346       10.31749       81.38952
H          1.95061        8.21203       82.18407
H          0.83798        9.53566       84.67370
H         -0.54397       10.94452       83.03074
H          0.19127        9.41157       81.19587
H          2.50894       11.29542       82.89477
H          1.25502       12.54572       82.54881
H          1.40880       11.87356       84.21162
N         -1.61323        8.64919       84.18760
C         -2.81653        7.82436       84.28107
C         -4.02971        8.65043       83.84260
O         -4.17972        9.78765       84.26954
C         -2.95614        7.27137       85.73671
C         -1.78046        6.28899       86.02129
C         -4.30527        6.55347       85.94298
C         -1.76100        5.70120       87.43374
H         -1.62105        9.54272       84.70513
H         -2.74437        6.92859       83.62478
H         -2.91793        8.12353       86.45034
H         -0.81581        6.81872       85.88041
H         -1.81662        5.44297       85.29726
H         -5.14948        7.24417       85.75733
H         -4.39131        5.67434       85.27408
H         -4.42562        6.21665       86.99115
H         -2.65225        5.07130       87.62938
H         -0.87110        5.04496       87.54233
H         -1.70183        6.51288       88.18779
N         -4.98164        8.08440       83.04930
C         -6.20754        8.72504       82.58218
C         -7.39324        8.17168       83.35786
O         -7.19508        7.36980       84.25741
C         -6.39311        8.45441       81.05992
C         -5.23336        9.01890       80.23912
O         -6.50847        7.06901       80.84382
H         -4.87284        7.09773       82.81667
H         -6.17554        9.82209       82.76331
H         -7.32228        8.95217       80.70897
H         -6.60491        6.91815       79.86735
H         -4.29918        8.50028       80.51977
H         -5.41664        8.84896       79.15583
H         -5.12970       10.11057       80.40970
N         -8.66557        8.55624       83.06807
C         -9.83508        8.03737       83.77443
C         -9.91572        6.51497       83.66955
O         -9.92368        5.85017       84.69532
C        -11.14255        8.69603       83.24761
C        -11.20178       10.19157       83.56959
O        -11.26587        8.53901       81.85456
H         -8.80619        9.24368       82.31352
H         -9.74657        8.29438       84.85491
H        -12.01215        8.23377       83.77403
H        -11.94352        7.83325       81.68788
H        -11.15653       10.34894       84.66766
H        -10.36715       10.74506       83.09173
H        -12.15761       10.61467       83.19314
N         -9.99940        5.90285       82.45764
C        -10.16162        4.46017       82.27880
C         -8.99623        3.65073       82.82240
O         -9.24083        2.64611       83.47676
C        -10.51051        4.11836       80.81265
C         -9.49865        4.56179       79.73838
C         -9.94731        4.25430       78.29169
C        -11.06974        5.13184       77.67309
N        -12.40925        4.91699       78.22782
H         -9.99057        6.50363       81.62588
H        -11.06444        4.13959       82.84725
H        -11.46867        4.61765       80.64256
H        -10.68232        3.02316       80.72255
H         -8.55642        4.00352       79.92668
H         -9.26371        5.64336       79.79258
H        -10.19802        3.17699       78.18658
H         -9.05428        4.44689       77.65704
H        -11.11187        4.86056       76.59449
H        -10.80488        6.21099       77.73078
H        -12.54107        5.44466       79.11522
H        -13.11361        5.31300       77.56383
H        -12.60580        3.89668       78.34720
N         -7.70845        4.04789       82.64232
C         -6.56312        3.32523       83.19953
C         -6.69166        3.18594       84.71200
O         -6.50694        2.08883       85.21989
C         -5.24807        4.04156       82.85052
C         -4.97044        4.06478       81.33376
C         -3.68140        4.77576       81.05318
O         -2.65035        4.11044       80.53140
O         -3.53234        5.94672       81.34449
H         -7.54574        4.92359       82.12409
H         -6.50413        2.30424       82.76035
H         -4.40207        3.51509       83.34743
H         -5.29567        5.06464       83.25540
H         -5.78208        4.56511       80.77196
H         -4.89387        3.01558       80.97312
N         -7.05850        4.24753       85.48263
C         -7.24507        4.18163       86.91868
H         -8.30967        4.38970       87.16001
H         -6.97811        3.18919       87.33740
H         -6.61550        4.95244       87.40894
H         -7.26050        5.14224       85.02662
Ca        -0.61523        4.98167       80.95327
O         -1.94473        9.07572       80.11762
H         -2.12353        9.73306       80.83709
H         -2.32064        9.49309       79.30344
O         -2.93381        6.78778       78.43708
H         -2.77315        7.50716       77.77615
H         -2.62249        5.96260       77.98839

Ca 1.0



