%chk=holoCaM-CaMKII.loop3.water2.frame185.chk
%nprocshared=20
%mem=10GB
%nosave
#b3lyp/svp scf=(tight,noincore,xqc) Test 
#IOP(5/87=12) Density=Current Pop=(MK,readradii) iop(6/33=2) iop(6/42=6)

holoCaM-CaMKII.loop3.water2.frame185 

   0  1 
C          2.15862       55.85355       16.08863
C          2.38681       55.69728       17.56134
O          1.91464       56.52108       18.32831
H          1.56276       56.76594       15.87458
H          3.13564       55.93009       15.56737
H          1.60823       54.96838       15.70509
N          3.08703       54.62532       18.02221
C          3.32526       54.34146       19.43314
C          4.52735       55.13480       19.94278
O          5.58028       54.55418       20.17244
C          3.53574       52.81744       19.59371
C          3.54932       52.35236       21.02227
O          3.72031       51.16888       21.25306
O          3.33102       53.20288       22.04434
H          3.40128       53.93131       17.32509
H          2.41462       54.58433       20.02380
H          4.47904       52.51271       19.09056
H          2.70041       52.28149       19.09893
N          4.44327       56.47904       20.13968
C          5.56469       57.28791       20.60629
C          6.00311       56.84783       21.99305
O          7.16037       56.48010       22.14562
C          5.20311       58.79160       20.58619
C          4.98178       59.28677       19.14233
C          4.60151       60.77286       19.09567
C          4.49454       61.31924       17.65807
N          3.45483       60.65210       16.87052
H          3.54658       56.94549       19.96103
H          6.42490       57.15523       19.91019
H          6.04506       59.37490       21.02128
H          4.29562       58.97349       21.20266
H          4.17562       58.69553       18.66485
H          5.92210       59.13569       18.56745
H          5.38621       61.36163       19.61896
H          3.63705       60.92759       19.62686
H          5.47503       61.21501       17.14228
H          4.25679       62.40445       17.71861
H          2.53100       60.72179       17.35519
H          3.38350       61.12199       15.93900
H          3.69917       59.65032       16.70348
N          5.14188       56.85566       23.05443
C          5.56800       56.48050       24.40605
C          5.97392       54.99942       24.54339
O          6.46976       54.63508       25.60058
C          4.51009       56.87639       25.46092
C          3.31943       55.97592       25.44148
O          3.06266       55.29598       26.42257
O          2.57451       55.83681       24.33617
H          4.18177       57.19788       22.90029
H          6.45971       57.10530       24.63581
H          4.19400       57.93064       25.30970
H          4.97574       56.80433       26.46882
N          5.84108       54.10511       23.51653
C          6.39633       52.75876       23.54446
C          5.70336       51.74776       24.43976
O          6.27986       50.68043       24.60072
H          5.44180       54.41721       22.62775
H          7.46311       52.84211       23.85039
H          6.39078       52.33337       22.51726
N          4.49854       51.96299       25.05322
C          3.95436       50.99200       26.01193
C          3.62255       49.61666       25.41817
O          3.36598       48.70090       26.18778
C          2.74051       51.56497       26.78937
C          1.35104       51.35395       26.15161
N          0.28044       51.92447       26.95597
O          1.22392       51.74831       24.81990
H          4.01237       52.85872       24.90526
H          4.76526       50.85756       26.76405
H          2.92264       52.63082       27.04202
H          2.68474       51.01069       27.75151
H          0.32362       51.50282       27.91097
H         -0.62473       51.61329       26.53677
N          3.55748       49.41308       24.06977
C          3.21010       48.14545       23.43852
C          1.89226       48.21370       22.67621
O          1.55010       47.23934       22.02456
H          3.73300       50.20509       23.44326
H          3.12178       47.32493       24.18395
H          4.02769       47.87595       22.73637
N          1.06766       49.29868       22.77763
C         -0.25932       49.39672       22.17706
C         -0.45865       50.75316       21.50245
O          0.36925       51.63701       21.66372
C         -1.34588       49.30214       23.27998
C         -1.29287       48.05510       24.12921
C         -0.27959       47.87567       25.08904
C         -2.29236       47.07704       24.00171
C         -0.26467       46.73611       25.89767
C         -2.27227       45.93570       24.80672
C         -1.25854       45.76221       25.75944
O         -1.23426       44.67021       26.54936
H          1.35633       50.06103       23.37991
H         -0.40775       48.57674       21.44221
H         -2.33722       49.35122       22.78116
H         -1.28909       50.17746       23.96520
H          0.48949       48.62306       25.22992
H         -3.08816       47.19576       23.27701
H          0.51635       46.61462       26.63800
H         -3.04896       45.19063       24.69202
H         -1.90787       43.97783       26.48871
N         -1.60659       51.00193       20.79799
C         -2.02502       52.35210       20.40420
C         -3.53478       52.53378       20.57404
O         -4.25900       51.56577       20.74816
C         -1.62002       52.70014       18.94061
C         -2.25436       51.71172       17.92692
C         -0.09392       52.76805       18.80141
C         -2.03012       52.10511       16.46630
H         -2.26643       50.22344       20.66460
H         -1.55654       53.08401       21.09897
H         -2.00384       53.72015       18.71900
H         -3.35432       51.68713       18.08008
H         -1.85937       50.68645       18.09494
H          0.31561       53.48779       19.54032
H          0.36012       51.76981       18.96646
H          0.20437       53.13502       17.79890
H         -0.95492       52.08578       16.19916
H         -2.55402       51.38051       15.80783
H         -2.44280       53.11881       16.27494
N         -4.06790       53.78807       20.51133
C         -5.50002       54.07156       20.52069
C         -5.86140       54.92496       19.30749
O         -4.98714       55.26848       18.52463
C         -5.86870       54.79325       21.82781
O         -5.57224       53.98139       22.93321
H         -3.42557       54.58900       20.45255
H         -6.09305       53.13232       20.47140
H         -6.94819       55.06681       21.85071
H         -5.29817       55.74150       21.91981
H         -6.32830       53.34346       23.03089
N         -7.15268       55.31386       19.09845
C         -7.56289       56.17420       17.98950
C         -6.86418       57.51956       18.04237
O         -6.47194       58.01905       16.99763
C         -9.07762       56.39089       18.00967
H         -7.87333       54.99240       19.76141
H         -7.32186       55.67503       17.02385
H         -9.38139       57.01769       17.14288
H         -9.59788       55.41288       17.92787
H         -9.39352       56.89404       18.94783
N         -6.65759       58.15514       19.23071
C         -5.93256       59.41600       19.34886
C         -4.51380       59.28343       18.82036
O         -4.12765       60.07378       17.97019
C         -5.89344       59.87405       20.81190
H         -7.01056       57.70798       20.09139
H         -6.46933       60.20442       18.77407
H         -5.37199       59.12998       21.45099
H         -5.36497       60.84876       20.89215
H         -6.92811       60.00900       21.19316
N         -3.68278       58.29717       19.27338
C         -2.29509       58.15675       18.82174
C         -2.17363       57.88444       17.32307
O         -1.06155       57.95113       16.81714
C         -1.57154       57.01725       19.57370
C         -1.48022       57.24434       21.09032
C         -0.78886       56.09113       21.76077
O         -1.43506       55.37433       22.69926
O          0.36010       55.80195       21.46644
H         -4.05452       57.64062       19.97526
H         -1.77303       59.11594       19.03670
H         -0.53580       56.92538       19.18284
H         -2.10021       56.06521       19.36436
H         -2.49279       57.34726       21.53128
H         -0.91233       58.17707       21.29463
N         -3.25070       57.55776       16.55445
C         -3.18433       57.32586       15.12642
H         -3.85766       58.04351       14.61113
H         -2.15980       57.45610       14.72068
H         -3.52694       56.29363       14.90532
H         -4.16956       57.44992       16.99020
Ca         1.41931       53.95225       24.48263
O         -0.66300       55.67275       25.79475
H         -1.33973       55.32201       26.42642
H         -0.08830       56.26110       26.34581
O         -1.89405       52.86478       24.29232
H         -2.01500       53.12470       25.23967
H         -2.78124       53.01674       23.88040

Ca 1.0



