%chk=holoCaM.loop4.water3.frame423.chk
%nprocshared=20
%mem=10GB
%nosave
#b3lyp/svp scf=(tight,noincore,xqc) Test 
#IOP(5/87=12) Density=Current Pop=(MK,readradii) iop(6/33=2) iop(6/42=6)

holoCaM.loop4.water3.frame423 

   -3  1 
C          4.58879       79.47308       68.23232
C          4.52671       78.72335       69.52747
O          3.42925       78.55512       70.03923
H          5.62982       79.56187       67.86140
H          3.98585       78.93066       67.47204
H          4.16219       80.48870       68.37014
N          5.65811       78.23880       70.12325
C          5.61486       77.45959       71.35711
C          7.02388       77.14459       71.86406
O          7.79673       76.55641       71.11869
C          4.86993       76.12042       71.11398
C          4.54514       75.41459       72.39440
O          4.02962       74.30915       72.36995
O          4.74655       76.02661       73.57209
H          6.57058       78.43575       69.68387
H          5.06582       78.06099       72.11610
H          5.49403       75.46900       70.46419
H          3.89974       76.26899       70.60279
N          7.40978       77.47255       73.13482
C          8.73509       77.17715       73.68874
C          8.63597       76.20835       74.89600
O          9.66749       75.78783       75.39370
C          9.44138       78.52432       74.10929
C          9.28144       79.63277       73.02629
C         10.94250       78.31217       74.42027
C          9.79900       81.01094       73.46560
H          6.73324       77.95832       73.73566
H          9.35249       76.68489       72.90629
H          8.92875       78.89973       75.02372
H          8.20324       79.78114       72.81506
H          9.78097       79.33035       72.08130
H         11.47569       77.95619       73.51221
H         11.42422       79.24615       74.76780
H         11.11531       77.59354       75.23861
H         10.89749       81.01809       73.60969
H          9.56786       81.76288       72.68183
H          9.30272       81.32911       74.40818
N          7.43507       75.86331       75.46120
C          7.31534       75.23158       76.78291
C          6.17479       74.20084       76.91087
O          6.04276       73.64136       77.99185
C          7.14980       76.36425       77.82898
C          6.13828       77.37578       77.36523
O          4.89727       76.98843       77.02765
O          6.49091       78.52282       77.14052
H          6.58159       76.27068       75.07617
H          8.24669       74.68228       77.04234
H          8.12509       76.89346       77.92451
H          6.89375       75.95768       78.83013
N          5.33850       73.86528       75.88515
C          4.30937       72.82473       75.96958
C          3.12155       73.08384       76.90140
O          2.27614       72.20535       76.99396
H          5.48642       74.29332       74.96764
H          4.79923       71.87636       76.27911
H          3.88794       72.66640       74.95342
N          2.98588       74.22444       77.63284
C          1.92083       74.45249       78.62155
C          0.51499       74.71747       78.05332
O         -0.37786       74.98340       78.84742
C          2.35990       75.58036       79.58589
C          2.58428       76.92314       78.95541
O          2.34034       77.12432       77.77793
O          3.09725       77.91365       79.70436
H          3.73362       74.92083       77.56221
H          1.84853       73.55137       79.27021
H          3.32271       75.26676       80.04441
H          1.61936       75.69607       80.40670
N          0.21499       74.62649       76.72554
C         -1.12897       74.82053       76.18929
C         -1.61864       76.26279       76.15017
O         -2.73609       76.46163       75.69791
H          0.93747       74.31683       76.06993
H         -1.84640       74.18815       76.75767
H         -1.14095       74.46721       75.13501
N         -0.85301       77.31494       76.56490
C         -1.27380       78.71695       76.47021
C         -0.29597       79.50964       75.60188
O          0.69518       78.95148       75.15656
C         -1.43398       79.32712       77.88426
C         -0.14383       79.32220       78.72179
C         -0.30875       79.94860       80.08662
N          0.74952       80.01806       80.92683
O         -1.38934       80.39471       80.44389
H          0.07887       77.12439       76.94091
H         -2.26873       78.78765       75.97969
H         -2.21446       78.75161       78.42922
H         -1.79363       80.37412       77.78719
H          0.63774       79.88440       78.17533
H          0.18778       78.27714       78.87633
H          1.66923       79.65538       80.64546
H          0.65395       80.43880       81.86240
N         -0.53425       80.82573       75.30673
C          0.34487       81.64006       74.46569
C          0.89842       82.80378       75.28201
O          0.14832       83.67174       75.70348
C         -0.42605       82.10665       73.19586
C          0.33908       83.16703       72.38640
C         -0.71285       80.89955       72.28490
H         -1.38342       81.27206       75.68243
H          1.21311       81.03993       74.11692
H         -1.39090       82.56608       73.50590
H          0.49637       84.08550       72.98945
H          1.32024       82.77799       72.05283
H         -0.25070       83.46449       71.49256
H          0.24188       80.44506       71.93736
H         -1.29788       80.12321       72.81959
H         -1.29143       81.21473       71.39062
N          2.23573       82.84802       75.55189
C          2.90146       83.89312       76.33114
C          3.08421       85.17028       75.51339
O          2.74870       85.19700       74.33864
C          4.28437       83.32676       76.77002
C          5.12569       84.18657       77.67876
N          4.66120       84.58460       78.88418
O          6.25347       84.50561       77.33341
H          2.80600       82.05066       75.23378
H          2.30089       84.09813       77.24357
H          4.87338       83.06989       75.86097
H          4.09947       82.39570       77.33015
H          3.71719       84.32237       79.19999
H          5.25081       85.16015       79.50217
N          3.64756       86.27167       76.08887
C          4.06757       87.46914       75.35911
C          5.31341       87.23672       74.48448
O          5.68671       88.15779       73.77251
C          4.27054       88.64886       76.34787
C          5.20977       88.34542       77.49868
C          4.69946       88.27823       78.80901
C          6.57904       88.11681       77.29079
C          5.53660       87.97083       79.88327
C          7.41628       87.80827       78.36855
C          6.89552       87.72938       79.66808
O          7.68779       87.42187       80.71451
H          3.78848       86.25016       77.10493
H          3.23927       87.78014       74.68326
H          3.26388       88.87553       76.76440
H          4.60456       89.56316       75.81159
H          3.64738       88.44950       79.00119
H          7.00271       88.17558       76.29914
H          5.12484       87.91201       80.88310
H          8.46887       87.62741       78.19220
H          8.63179       87.23755       80.60885
N          5.97732       86.03914       74.44723
C          7.06932       85.73018       73.51857
C          6.57189       84.81446       72.40568
O          7.35284       84.48668       71.52187
C          8.21942       84.99130       74.25316
C          8.95498       85.78144       75.34126
C          9.78188       86.90862       74.78663
O          9.25421       87.85383       74.22467
O         11.12240       86.88211       74.92147
H          5.63984       85.26376       75.02656
H          7.43941       86.64833       73.01829
H          8.98450       84.64935       73.52047
H          7.78753       84.08036       74.72626
H          9.64874       85.07349       75.84683
H          8.24390       86.15162       76.10268
N          5.29223       84.34874       72.39224
C          4.75511       83.41368       71.42099
C          3.58379       84.03115       70.66857
O          3.04257       83.36302       69.79927
C          4.30897       82.14564       72.18689
C          5.48219       81.57379       72.99858
C          5.12049       80.45421       73.91772
O          5.98165       80.02705       74.66734
O          3.88654       79.91985       73.97583
H          4.65195       84.61450       73.14096
H          5.53078       83.13235       70.67509
H          3.91459       81.37620       71.48731
H          3.50032       82.42936       72.89476
H          5.89270       82.36205       73.66177
H          6.28557       81.23904       72.30842
N          3.13514       85.29652       70.94118
C          2.02563       85.92197       70.25445
H          1.23133       86.16408       70.99193
H          2.37535       86.86572       69.78530
H          1.59252       85.27315       69.46651
H          3.57986       85.86976       71.67057
Ca         3.85737       78.23057       75.45921
O          3.74276       80.05506       77.51102
H          4.41689       79.82904       78.19783
H          2.87544       79.83990       77.92912
O          2.14264       75.78343       74.55916
H          1.47152       75.41716       73.93036
H          2.72435       75.01117       74.76999
O          1.92134       77.74362       72.53952
H          2.21369       78.67835       72.40408
H          0.93334       77.79469       72.57126

Ca 1.0



