%chk=holoCaM-CaMKII.loop1.water2.frame221.chk
%nprocshared=20
%mem=10GB
%nosave
#b3lyp/svp scf=(tight,noincore,xqc) Test 
#IOP(5/87=12) Density=Current Pop=(MK,readradii) iop(6/33=2) iop(6/42=6)

holoCaM-CaMKII.loop1.water2.frame221 

   0  1 
C          7.29719       50.93632       56.32689
C          6.19185       51.25974       57.28635
O          5.07816       50.80787       57.08727
H          8.10549       50.39678       56.86549
H          6.92900       50.29273       55.49994
H          7.70722       51.87521       55.90022
N          6.45172       52.02581       58.37817
C          5.46950       52.35703       59.40859
C          4.36862       53.26804       58.85468
O          4.53997       54.47985       58.85072
C          6.22840       53.02752       60.57324
C          5.41835       53.32128       61.79143
O          4.24778       52.99009       61.88803
O          6.02284       53.95667       62.80577
H          7.42601       52.34619       58.50073
H          5.02977       51.41476       59.79799
H          6.67685       53.97881       60.21241
H          7.05680       52.35943       60.89776
N          3.23459       52.74226       58.30567
C          2.21777       53.56288       57.64339
C          1.31426       54.33075       58.61014
O          0.56070       55.15810       58.11528
C          1.35079       52.68268       56.69939
C          2.14225       52.09654       55.50679
C          2.45205       53.15003       54.42248
C          3.38335       52.63852       53.30734
N          2.86210       51.45942       52.61507
H          3.14234       51.71708       58.27094
H          2.73601       54.32410       57.02453
H          0.49074       53.25317       56.28474
H          0.93484       51.84928       57.30774
H          1.52049       51.30623       55.03451
H          3.07296       51.62288       55.86982
H          2.95872       54.02988       54.86503
H          1.49224       53.49664       53.97858
H          4.38113       52.40101       53.73779
H          3.51859       53.46179       52.56970
H          1.90800       51.65027       52.23318
H          3.50409       51.22514       51.82307
H          2.83738       50.63890       53.26165
N          1.29007       54.11639       59.96388
C          0.40307       54.86232       60.86934
C          1.15077       55.58134       61.99407
O          0.49231       56.19649       62.82168
C         -0.74678       53.96820       61.39944
C         -0.38307       52.86441       62.35228
O          0.88683       52.64353       62.71717
O         -1.25829       52.12166       62.76659
H          1.88915       53.38336       60.36114
H         -0.12366       55.66044       60.30238
H         -1.26240       53.51863       60.52169
H         -1.48262       54.61707       61.92205
N          2.51464       55.61203       62.06188
C          3.24443       56.39016       63.05655
C          3.23993       55.83198       64.47340
O          3.82620       56.47575       65.33217
H          3.06836       55.16254       61.32080
H          2.85232       57.43022       63.05515
H          4.31168       56.43881       62.74852
N          2.65670       54.64242       64.80300
C          2.69684       54.06290       66.15343
C          4.10099       53.62918       66.61241
O          4.22924       53.14472       67.72805
C          1.72168       52.86447       66.25007
C          2.05978       51.68510       65.37232
O          3.13559       51.69391       64.56107
O          1.33739       50.70234       65.39366
H          2.14897       54.13690       64.07169
H          2.31803       54.82905       66.86575
H          0.70216       53.21795       65.98162
H          1.68883       52.51213       67.30410
N          5.19252       53.77122       65.81284
C          6.54493       53.37203       66.16188
C          6.71409       51.87186       66.21552
O          7.28934       51.38374       67.17343
H          5.08035       54.20829       64.89914
H          6.87173       53.86429       67.10389
H          7.22165       53.72349       65.35260
N          6.31543       51.10328       65.16024
C          6.54227       49.65549       65.01071
C          6.18100       49.19137       63.58874
O          5.54436       49.92716       62.84471
C          5.74610       48.76491       66.02237
C          6.20986       48.75534       67.48369
O          4.37438       49.04618       65.96199
H          5.88640       51.61916       64.37875
H          7.63422       49.47289       65.11925
H          5.89268       47.70990       65.70350
H          4.23798       49.94582       66.35873
H          5.65924       47.96003       68.03075
H          7.29563       48.52902       67.54321
H          5.97279       49.69702       68.00924
N          6.60776       47.97342       63.13271
C          6.33913       47.47781       61.78223
C          5.66975       46.11116       61.86456
O          6.30153       45.16586       62.31804
C          7.66676       47.42717       60.96037
C          8.26559       48.85621       60.83927
C          7.43776       46.81353       59.56320
C          9.63611       48.90564       60.16018
H          7.19200       47.39003       63.75202
H          5.65485       48.16819       61.25067
H          8.39087       46.78019       61.50493
H          8.40577       49.28294       61.85453
H          7.56179       49.51426       60.28239
H          8.38758       46.72160       59.00073
H          7.04416       45.78270       59.64734
H          6.72522       47.42789       58.97446
H         10.36236       48.27548       60.71603
H          9.58631       48.57219       59.10473
H         10.00523       49.95308       60.15825
N          4.38277       45.93609       61.43986
C          3.71428       44.63157       61.44069
C          4.22791       43.76696       60.29138
O          5.03672       44.22953       59.50483
C          2.17149       44.78566       61.30396
C          1.55981       45.61424       62.43081
O          1.84989       45.37518       60.07335
H          3.85772       46.76369       61.12191
H          3.90649       44.12705       62.41408
H          1.71840       43.76990       61.36661
H          0.93367       45.07438       59.83724
H          0.45434       45.63087       62.32691
H          1.81766       45.18217       63.42078
H          1.91757       46.65644       62.36561
N          3.75412       42.50292       60.10792
C          4.07805       41.68162       58.93987
C          3.56723       42.33860       57.66237
O          4.32048       42.45637       56.70643
C          3.45662       40.26441       59.06072
C          4.07463       39.47179       60.21726
O          2.06387       40.34787       59.23216
H          3.10346       42.12336       60.81046
H          5.18066       41.54605       58.86045
H          3.68816       39.71818       58.11482
H          1.68349       39.47318       58.95712
H          3.88193       39.96298       61.19294
H          3.63805       38.45109       60.24527
H          5.17160       39.37737       60.07033
N          2.28213       42.78662       57.59134
C          1.66409       43.36430       56.39672
C          2.46635       44.54280       55.88708
O          2.81306       44.57500       54.71464
C          0.20826       43.81792       56.69737
C         -0.72539       42.69851       57.21003
C         -0.92172       41.55987       56.20101
C         -1.77711       40.43970       56.80561
N         -1.98365       39.36268       55.83881
H          1.72359       42.72316       58.45209
H          1.63637       42.60439       55.58863
H         -0.23649       44.25526       55.77620
H          0.22993       44.61657       57.47084
H         -1.71811       43.14638       57.43552
H         -0.34123       42.28168       58.16179
H          0.05531       41.11492       55.92495
H         -1.40789       41.96387       55.28618
H         -2.76322       40.84197       57.12637
H         -1.25618       40.03054       57.70123
H         -2.52214       39.72092       55.01701
H         -1.06342       38.98138       55.51899
H         -2.52749       38.59444       56.29370
N          2.83065       45.52985       56.74318
C          3.62927       46.68928       56.36599
C          4.94171       46.26107       55.74536
O          5.21680       46.65542       54.62064
C          3.88834       47.56221       57.60578
C          2.58004       48.18732       58.10293
C          2.75350       49.03002       59.31794
O          3.83442       49.17191       59.86459
O          1.68174       49.68060       59.77767
H          2.54928       45.42066       57.72528
H          3.07473       47.29997       55.61692
H          4.58802       48.38026       57.34099
H          4.35347       46.95120       58.41127
H          1.82627       47.41403       58.35012
H          2.16563       48.83286       57.29840
N          5.78809       45.43422       56.41439
C          7.04305       44.96036       55.87245
H          7.86916       45.25460       56.55187
H          7.01096       43.85302       55.79956
H          7.25052       45.37227       54.86279
H          5.52344       45.10401       57.34813
Ca         1.85211       51.10972       61.45546
O         -0.30365       48.85465       62.20417
H         -0.85250       48.03656       62.30161
H         -0.36123       49.29899       63.08725
O          2.73486       48.10675       64.11922
H          2.01074       48.68391       63.77226
H          2.31493       47.59193       64.85386

Ca 1.0



