%chk=holoCaM.loop1.water2.frame338.chk
%nprocshared=20
%mem=10GB
%nosave
#b3lyp/svp scf=(tight,noincore,xqc) Test 
#IOP(5/87=12) Density=Current Pop=(MK,readradii) iop(6/33=2) iop(6/42=6)

holoCaM.loop1.water2.frame338 

   0  1 
C         88.73713       36.03027       10.94215
C         89.00617       36.68507        9.62349
O         89.37321       37.84796        9.59617
H         87.67212       35.71605       10.97790
H         89.38767       35.13992       11.06264
H         88.92566       36.73764       11.77742
N         88.83934       35.98484        8.47145
C         88.99491       36.58308        7.15108
C         87.88040       37.60810        6.95681
O         86.72573       37.23135        7.10445
C         88.94451       35.46369        6.09062
C         89.29093       35.91578        4.70449
O         89.61572       37.19478        4.44317
O         89.31482       35.09513        3.80508
H         88.57640       34.98880        8.54451
H         90.00104       37.05001        7.08471
H         87.94070       34.98596        6.08720
H         89.69743       34.69059        6.36414
N         88.14183       38.91823        6.66041
C         87.09810       39.95089        6.63407
C         86.76753       40.45577        5.23831
O         85.80264       41.19617        5.10509
C         87.50389       41.13928        7.53462
C         87.79678       40.76515        8.99565
C         86.59083       40.12505        9.69552
C         86.87859       39.85170       11.17547
N         85.72137       39.22924       11.81756
H         89.11493       39.19888        6.48034
H         86.14220       39.52342        6.99929
H         86.69611       41.90272        7.52477
H         88.42191       41.60980        7.11482
H         88.08054       41.69573        9.53381
H         88.66492       40.08206        9.03409
H         86.33982       39.16126        9.20582
H         85.71915       40.81030        9.61754
H         87.11462       40.80977       11.68939
H         87.75678       39.17685       11.27235
H         85.51569       38.30708       11.36814
H         85.93186       39.07331       12.82939
H         84.88588       39.85359       11.73686
N         87.49388       40.08917        4.15358
C         87.15451       40.44291        2.77583
C         86.96092       39.18677        1.92321
O         86.65297       39.32800        0.74780
C         88.22598       41.39586        2.18982
C         89.61160       40.99535        2.59750
O         90.03488       39.75043        2.35956
O         90.30584       41.75785        3.24920
H         88.33507       39.51602        4.30085
H         86.18492       40.98543        2.71908
H         88.05046       42.41725        2.59150
H         88.12745       41.45442        1.08324
N         87.07273       37.92871        2.44363
C         86.83031       36.71957        1.67970
C         87.80462       36.54204        0.53919
O         87.36979       36.37288       -0.59053
H         87.29760       37.79268        3.43720
H         85.78250       36.71526        1.30795
H         86.94714       35.84494        2.35802
N         89.14454       36.51735        0.78089
C         90.15417       36.18014       -0.22318
C         90.90162       34.91155        0.18214
O         91.94661       34.62527       -0.38517
C         91.09705       37.37466       -0.49087
C         91.91134       37.85477        0.67262
O         91.84152       37.26387        1.87548
O         92.56964       38.87559        0.55063
H         89.45964       36.69166        1.74524
H         89.67926       35.97130       -1.20657
H         90.46146       38.22606       -0.82377
H         91.79149       37.12711       -1.32135
N         90.36718       34.05490        1.10295
C         90.96694       32.79070        1.49216
C         92.15526       32.89950        2.43084
O         92.65197       31.84735        2.81136
H         89.43137       34.24521        1.48399
H         91.23512       32.21351        0.58003
H         90.19874       32.20398        2.04063
N         92.68351       34.08940        2.84734
C         93.85299       34.17892        3.72672
C         93.65023       35.14472        4.89530
O         92.64612       35.84443        4.95220
C         95.10070       34.57928        2.89801
C         95.55280       33.45247        1.95879
O         94.87907       35.76784        2.17991
H         92.28615       34.96354        2.48458
H         94.05923       33.18861        4.18996
H         95.95702       34.75021        3.58363
H         94.30372       35.55919        1.39740
H         94.76611       33.20352        1.21673
H         96.47008       33.76533        1.41694
H         95.79029       32.54248        2.55091
N         94.59298       35.19906        5.88702
C         94.55426       36.07980        7.05434
C         95.81321       36.94507        7.09386
O         96.91452       36.41915        7.19026
C         94.36372       35.23286        8.35691
C         92.87535       34.79037        8.44276
C         94.77094       36.00661        9.62942
C         92.53963       33.89216        9.63447
H         95.39585       34.55286        5.82490
H         93.69221       36.76804        6.98984
H         95.03121       34.34360        8.30657
H         92.60163       34.23829        7.51917
H         92.22817       35.69526        8.50684
H         94.67637       35.37588       10.53436
H         95.84361       36.28536        9.59367
H         94.15928       36.91895        9.75284
H         92.71097       34.40823       10.60080
H         91.46118       33.62903        9.59793
H         93.14043       32.96055        9.59554
N         95.69635       38.30391        7.04473
C         96.81395       39.24663        7.14157
C         97.28236       39.40082        8.58904
O         96.74122       38.75478        9.46748
C         96.36916       40.64414        6.61774
C         95.89918       40.59349        5.16643
O         95.33789       41.15423        7.42112
H         94.75032       38.69368        6.92552
H         97.65205       38.90154        6.49635
H         97.24303       41.33119        6.65042
H         95.30177       42.13393        7.26558
H         96.69164       40.17142        4.51411
H         94.97747       39.98722        5.07956
H         95.66550       41.62161        4.82394
N         98.25313       40.30361        8.91089
C         98.60764       40.67544       10.28354
C         97.41544       41.29514       11.01403
O         97.10542       40.84984       12.11002
C         99.79611       41.67644       10.29404
C        101.09538       40.98752        9.85010
O         99.51264       42.77729        9.46514
H         98.73019       40.79150        8.14008
H         98.93319       39.77566       10.85392
H         99.94778       42.03177       11.33980
H        100.28308       43.40030        9.52239
H        101.01224       40.59251        8.81719
H        101.94030       41.70745        9.89001
H        101.33120       40.14917       10.54056
N         96.70769       42.32850       10.46874
C         95.59565       43.00513       11.14680
C         94.50950       42.01921       11.53990
O         94.13514       41.96073       12.70259
C         94.96599       44.09677       10.24436
C         95.93848       45.23526        9.89528
C         95.23611       46.32162        9.06796
C         96.20380       47.46089        8.71919
N         95.52724       48.51117        7.95823
H         96.96988       42.63596        9.52174
H         95.97216       43.50086       12.06944
H         94.10356       44.54117       10.79053
H         94.58032       43.64168        9.30515
H         96.79836       44.84381        9.31313
H         96.32122       45.68697       10.83609
H         94.38419       46.73338        9.65267
H         94.84077       45.87791        8.12739
H         97.04917       47.05800        8.11782
H         96.61565       47.89837        9.65569
H         96.21376       49.26756        7.73449
H         95.14765       48.12311        7.06428
H         94.74859       48.92005        8.52458
N         93.97804       41.19952       10.59876
C         92.93717       40.20387       10.83984
C         93.35681       39.25059       11.94821
O         92.59120       39.06117       12.88300
C         92.63124       39.46317        9.51412
C         91.98255       40.42997        8.49491
C         91.75156       39.83597        7.13577
O         92.08068       38.56288        6.86155
O         91.27019       40.53050        6.25517
H         94.37503       41.27352        9.65482
H         91.99654       40.70155       11.16704
H         91.93176       38.61945        9.69745
H         93.57795       39.05158        9.10237
H         92.62439       41.31940        8.34110
H         91.00838       40.77557        8.90105
N         94.58769       38.67439       11.94255
C         95.08899       37.81495       12.99597
H         95.97619       38.29274       13.46474
H         94.33412       37.62858       13.78765
H         95.39894       36.84166       12.56373
H         95.22294       38.89360       11.17376
Ca        91.78693       38.83321        3.42632
O         94.59349       38.17301        3.41906
H         95.53716       37.90426        3.54902
H         94.63306       38.91956        2.76995
O         93.16137       41.42235        3.45543
H         92.92569       41.09701        2.55066
H         93.89993       42.06029        3.29864

Ca 1.0



