%chk=holoCaM-CaMKII.loop4.water2.frame278.chk
%nprocshared=20
%mem=10GB
%nosave
#b3lyp/svp scf=(tight,noincore,xqc) Test 
#IOP(5/87=12) Density=Current Pop=(MK,readradii) iop(6/33=2) iop(6/42=6)

holoCaM-CaMKII.loop4.water2.frame278 

   -3  1 
C         53.88053       26.67636       96.61541
C         53.49130       26.06437       97.93407
O         52.68918       26.64663       98.64833
H         54.63464       26.05498       96.08503
H         52.98974       26.77740       95.96217
H         54.32609       27.67887       96.78742
N         54.03514       24.87857       98.32095
C         53.76651       24.22611       99.60142
C         54.23320       25.10873      100.74730
O         55.38663       25.51565      100.74757
C         54.46928       22.84690       99.60470
C         54.47510       22.07330      100.90310
O         55.54871       21.70807      101.35154
O         53.35245       21.73954      101.57397
H         54.68607       24.41865       97.66489
H         52.68057       24.04460       99.68758
H         55.53229       22.99162       99.30831
H         53.98384       22.21935       98.82557
N         53.38530       25.41775      101.77607
C         53.75890       26.26140      102.90670
C         53.98121       25.44542      104.17152
O         54.42994       26.03154      105.14797
C         52.69657       27.38146      103.17241
C         51.34694       26.80214      103.69527
C         52.49236       28.24857      101.91868
C         50.35970       27.86807      104.17656
H         52.44986       25.00155      101.78338
H         54.73328       26.75052      102.68664
H         53.10946       28.03526      103.97344
H         51.53932       26.15410      104.57602
H         50.85780       26.18192      102.91890
H         51.82626       29.10939      102.13062
H         53.46395       28.66146      101.57615
H         52.04231       27.65146      101.09787
H         50.81773       28.47711      104.98530
H         50.03455       28.53153      103.35141
H         49.45454       27.37046      104.58642
N         53.66773       24.11541      104.25808
C         53.83615       23.36288      105.49597
C         54.34411       21.94615      105.24630
O         53.87017       21.00766      105.87135
C         52.55890       23.46241      106.36445
C         51.29690       22.94774      105.71892
O         50.13612       23.02640      106.39618
O         51.30001       22.48095      104.59172
H         53.23851       23.63483      103.45680
H         54.65156       23.83585      106.08653
H         52.38793       24.53417      106.60645
H         52.72056       22.92194      107.32120
N         55.38478       21.74931      104.38862
C         56.12655       20.50363      104.22336
C         55.39696       19.26693      103.71162
O         56.08417       18.26993      103.53747
H         55.74793       22.56942      103.87866
H         56.58866       20.24290      105.19917
H         56.95634       20.70351      103.50981
N         54.05367       19.20009      103.47539
C         53.39629       17.94188      103.09731
C         53.52557       17.59268      101.61095
O         53.03750       16.53998      101.22191
C         51.93548       17.90891      103.59726
C         51.07620       19.02525      103.08488
O         50.50104       19.87451      103.95443
O         50.87125       19.15763      101.89318
H         53.47040       20.02459      103.66100
H         53.87974       17.10959      103.65975
H         51.95168       17.97019      104.70790
H         51.47179       16.93476      103.32720
N         54.21240       18.37900      100.73326
C         54.45939       18.01328       99.34419
C         53.29315       18.21607       98.38875
O         53.50620       18.01808       97.20239
H         54.67724       19.22772      101.07794
H         54.84303       16.97022       99.28843
H         55.26659       18.67669       98.96452
N         52.06096       18.63757       98.79861
C         50.97151       18.97028       97.87469
C         50.53457       20.41478       98.08014
O         51.03078       21.06782       98.98334
C         49.78116       18.01426       98.06864
C         50.12950       16.57862       97.65268
C         48.92483       15.67918       97.76687
N         48.94555       14.58846       98.56688
O         47.91955       15.93298       97.11898
H         51.88890       18.76221       99.79883
H         51.31410       18.89136       96.81995
H         48.93860       18.35449       97.42833
H         49.44715       18.03403       99.12800
H         50.96128       16.19735       98.28305
H         50.46449       16.57332       96.59235
H         49.78382       14.34952       99.11567
H         48.11889       13.97616       98.63402
N         49.64158       20.99599       97.21881
C         49.24943       22.40244       97.29924
C         47.72232       22.52449       97.33130
O         47.06475       22.17372       96.36311
C         49.87990       23.16732       96.09851
C         49.47477       24.64691       96.06323
C         51.41798       23.08442       96.15882
H         49.28358       20.44165       96.42773
H         49.65737       22.86283       98.22633
H         49.53623       22.69673       95.15091
H         48.37585       24.75497       95.97331
H         49.82688       25.16583       96.97569
H         49.93023       25.14517       95.18072
H         51.79420       23.54740       97.09718
H         51.76703       22.03190       96.12249
H         51.87197       23.61677       95.29657
N         47.10278       23.02094       98.44287
C         45.65346       23.22622       98.58796
C         45.17630       24.39789       97.72057
O         46.00082       25.01132       97.06847
C         45.37844       23.50739      100.09422
C         43.93038       23.60658      100.50040
N         43.07951       22.57359      100.30416
O         43.52490       24.62659      101.03615
H         47.70442       23.23836       99.24783
H         45.12908       22.28952       98.30139
H         45.90324       24.44519      100.38314
H         45.81409       22.67503      100.68849
H         43.40140       21.69916       99.86629
H         42.09272       22.65062      100.59258
N         43.86477       24.78524       97.67852
C         43.39862       26.00935       97.01629
C         43.97051       27.23719       97.71584
O         44.53423       28.09422       97.05015
C         41.85561       26.10285       97.06550
C         41.33878       27.36734       96.40405
C         41.50459       27.57993       95.02327
C         40.68980       28.35100       97.17140
C         41.02709       28.75195       94.42442
C         40.21928       29.52348       96.57172
C         40.38475       29.72711       95.19473
O         39.93242       30.85193       94.60337
H         43.16535       24.20731       98.16253
H         43.70224       25.99449       95.94524
H         41.53489       26.07679       98.12993
H         41.40309       25.22263       96.56052
H         41.99839       26.83854       94.40827
H         40.55515       28.21662       98.23724
H         41.15654       28.90344       93.35973
H         39.72688       30.27306       97.17865
H         39.48253       31.55058       95.10022
N         43.85470       27.37545       99.07322
C         44.35351       28.52860       99.83323
C         45.86254       28.72132       99.71137
O         46.36993       29.72731      100.18790
C         44.02262       28.38876      101.33748
C         42.51838       28.30221      101.62904
C         42.27957       28.21883      103.10922
O         41.62849       29.08167      103.67577
O         42.77976       27.18855      103.81902
H         43.38367       26.61729       99.58022
H         43.85689       29.43988       99.43320
H         44.42019       29.27945      101.87429
H         44.53399       27.48427      101.73956
H         42.07001       27.40312      101.16031
H         42.01475       29.20286      101.21611
N         46.63607       27.80962       99.07212
C         48.06183       27.93202       98.84870
C         48.26998       28.38488       97.41360
O         48.99145       29.34849       97.19771
C         48.71101       26.57808       99.17986
C         48.54126       26.25852      100.67574
C         49.06801       24.90012      101.00074
O         50.34306       24.62011      100.71861
O         48.36756       24.06818      101.55451
H         46.20286       26.96353       98.69196
H         48.52323       28.70451       99.50519
H         49.79533       26.60704       98.93449
H         48.23064       25.77987       98.57306
H         47.47439       26.30746      100.97970
H         49.10868       27.01181      101.26445
N         47.57594       27.81464       96.39107
C         47.61412       28.31557       95.03728
H         47.29991       29.38206       95.02436
H         48.63377       28.21187       94.61791
H         46.89791       27.74242       94.40790
H         46.93908       27.04057       96.58061
Ca        51.36010       22.70492      101.26502
O         48.10392       21.84007      103.84511
H         48.15921       22.55239      104.53006
H         47.94065       21.01117      104.36167
O         48.13372       19.95279      101.38609
H         48.17519       19.44074      100.54063
H         47.95244       19.26962      102.07986

Ca 1.0



