%chk=holoCaM-CaMKII.loop1.water2.frame88.chk
%nprocshared=20
%mem=10GB
%nosave
#b3lyp/svp scf=(tight,noincore,xqc) Test 
#IOP(5/87=12) Density=Current Pop=(MK,readradii) iop(6/33=2) iop(6/42=6)

holoCaM-CaMKII.loop1.water2.frame88 

   0  1 
C          0.96161       44.76460       69.93006
C         -0.26870       44.68533       70.77951
O         -0.50325       43.64328       71.37539
H          1.85780       44.58582       70.55956
H          0.90814       43.98826       69.13807
H          1.05543       45.75906       69.44618
N         -1.11126       45.75205       70.88433
C         -2.32486       45.70705       71.68642
C         -3.24838       44.63348       71.12489
O         -3.67783       44.74390       69.98474
C         -2.99698       47.09560       71.70541
C         -4.17912       47.17996       72.62501
O         -4.77723       48.23598       72.73233
O         -4.57197       46.11935       73.35220
H         -0.87438       46.62208       70.38246
H         -2.02974       45.46510       72.73355
H         -3.31280       47.37475       70.67700
H         -2.25448       47.84453       72.05939
N         -3.53914       43.53223       71.87038
C         -4.24428       42.36533       71.35565
C         -5.73072       42.49342       71.63560
O         -6.50922       42.55660       70.69470
C         -3.62609       41.09086       71.99000
C         -4.23874       39.75849       71.52285
C         -4.05724       39.44485       70.02825
C         -2.58165       39.28500       69.62187
N         -2.46797       38.91471       68.21191
H         -3.11563       43.46995       72.80213
H         -4.08345       42.30558       70.25732
H         -3.74263       41.13783       73.09331
H         -2.53265       41.08349       71.79906
H         -5.32346       39.75888       71.76253
H         -3.77036       38.93686       72.10884
H         -4.54252       40.22764       69.40951
H         -4.57747       38.48346       69.82598
H         -2.11135       38.49154       70.24517
H         -2.02828       40.23404       69.78556
H         -1.45790       38.79521       67.96908
H         -2.96648       38.01246       68.03457
H         -2.87460       39.66766       67.61064
N         -6.19249       42.53311       72.91687
C         -7.60540       42.67276       73.26527
C         -8.18019       43.97254       72.70392
O         -9.11048       43.89790       71.91340
C         -7.84154       42.53802       74.79526
C         -7.11929       43.56831       75.61340
O         -5.77438       43.60764       75.61950
O         -7.74881       44.40160       76.24601
H         -5.49863       42.43326       73.66491
H         -8.15988       41.82420       72.80431
H         -7.51365       41.53364       75.13888
H         -8.93528       42.62022       74.98307
N         -7.65670       45.19043       73.03377
C         -8.11740       46.44891       72.46172
C         -8.55021       47.43372       73.52613
O         -9.68904       47.87747       73.49639
H         -6.85942       45.22841       73.67904
H         -8.95267       46.28930       71.74596
H         -7.27854       46.90361       71.89231
N         -7.66712       47.85063       74.47712
C         -7.95968       48.87150       75.48684
C         -7.00473       50.05406       75.35325
O         -6.79804       50.77465       76.32067
C         -7.95395       48.25339       76.90614
C         -6.66232       47.61252       77.33088
O         -5.58548       47.62352       76.53031
O         -6.63098       46.96213       78.36300
H         -6.72379       47.44266       74.45806
H         -8.98624       49.27617       75.34989
H         -8.73242       47.45839       76.91526
H         -8.24079       49.01595       77.66100
N         -6.44488       50.35756       74.14625
C         -5.58092       51.50188       73.91107
C         -4.19578       51.41512       74.52817
O         -3.44073       52.35180       74.31200
H         -6.69640       49.79374       73.32236
H         -6.09362       52.42537       74.25998
H         -5.42615       51.59802       72.81476
N         -3.77933       50.36878       75.30560
C         -2.44970       50.32227       75.92121
C         -1.74125       48.99902       75.64327
O         -2.34140       48.09264       75.08474
C         -2.56742       50.57429       77.44560
C         -3.16615       51.95475       77.75727
O         -3.30992       49.56325       78.07826
H         -4.43063       49.60368       75.51206
H         -1.80678       51.12611       75.50059
H         -1.54799       50.56758       77.88738
H         -4.26506       49.67787       77.83571
H         -3.19435       52.11276       78.85570
H         -2.54768       52.75451       77.29794
H         -4.20302       52.03651       77.36678
N         -0.43183       48.84001       76.00808
C          0.33336       47.60816       75.81426
C          0.89789       47.18091       77.17039
O          1.55912       47.98904       77.80754
C          1.49769       47.82449       74.79211
C          1.00145       48.51171       73.49097
C          2.15805       46.46435       74.46635
C          2.12939       48.84133       72.50525
H          0.05963       49.64347       76.42787
H         -0.31926       46.80996       75.39572
H          2.25335       48.49860       75.25354
H          0.53073       49.48209       73.75635
H          0.23983       47.88189       72.98228
H          3.03833       46.58006       73.80405
H          2.52308       45.96779       75.38470
H          1.42796       45.78808       73.96810
H          2.90136       49.47112       72.99804
H          2.60611       47.92514       72.10292
H          1.71637       49.40497       71.64251
N          0.72806       45.91374       77.64756
C          1.31646       45.44365       78.90687
C          2.60819       44.70098       78.63531
O          3.00181       44.56880       77.49124
C          0.32964       44.53068       79.69034
C         -0.90234       45.28673       80.18203
O         -0.02639       43.40091       78.93099
H          0.26380       45.22997       77.03960
H          1.59161       46.30525       79.55387
H          0.81287       44.15554       80.61507
H         -0.79907       43.64034       78.35829
H         -0.60272       46.11268       80.86036
H         -1.43779       45.70164       79.31680
H         -1.57480       44.59471       80.73427
N          3.33803       44.20280       79.66960
C          4.57031       43.43947       79.49644
C          4.30670       42.17418       78.68973
O          4.97589       41.94754       77.69182
C          5.18720       43.08093       80.87687
C          5.64036       44.33150       81.64039
O          4.26111       42.37133       81.66278
H          2.99237       44.36816       80.62504
H          5.31956       44.05632       78.95052
H          6.09332       42.45741       80.68659
H          4.76706       41.69716       82.18622
H          6.10099       44.03389       82.60582
H          6.39532       44.88927       81.04722
H          4.78918       45.00888       81.86042
N          3.33206       41.30896       79.07657
C          3.02415       40.04541       78.40827
C          2.64478       40.25434       76.95261
O          3.22033       39.58645       76.10444
C          1.92806       39.30113       79.20809
C          2.53616       38.80625       80.53876
C          1.51811       38.18555       81.49846
C          2.20167       37.52411       82.71569
N          3.05979       38.44489       83.46796
H          2.76974       41.57146       79.89996
H          3.92356       39.38830       78.41219
H          1.57160       38.40929       78.64737
H          1.05988       39.97748       79.37627
H          3.01988       39.65147       81.06818
H          3.31507       38.05060       80.29401
H          0.93467       37.39927       80.97296
H          0.81423       38.97626       81.83964
H          2.81472       36.66169       82.37075
H          1.40976       37.12933       83.38934
H          3.41473       37.95640       84.32167
H          3.89284       38.72068       82.89961
H          2.52408       39.29412       83.75798
N          1.73190       41.19201       76.57767
C          1.38787       41.45156       75.17602
C          2.63734       41.77202       74.36635
O          2.86852       41.11896       73.35834
C          0.34382       42.58687       75.05821
C         -0.98916       42.17173       75.70970
C         -2.05091       43.22515       75.59350
O         -1.85907       44.46075       76.08824
O         -3.12455       42.94406       75.09358
H          1.30398       41.76484       77.31884
H          0.92680       40.53999       74.73327
H          0.15467       42.79638       73.98211
H          0.73977       43.51375       75.52590
H         -0.84325       41.95802       76.78354
H         -1.35456       41.23847       75.22654
N          3.51624       42.72162       74.78503
C          4.75873       43.03379       74.10770
H          5.61077       42.80204       74.78296
H          4.88983       42.45313       73.17110
H          4.78412       44.11566       73.86277
H          3.31884       43.22200       75.65354
Ca        -4.86749       45.55765       76.16932
O         -4.35451       43.36956       78.31869
H         -5.15675       43.94971       78.31374
H         -4.51198       42.74343       79.06832
O         -3.56371       46.46125       78.37342
H         -2.91223       47.18722       78.52925
H         -3.83371       46.15882       79.27580

Ca 1.0



