%chk=holoCaM-CaMKII.loop2.water2.frame477.chk
%nprocshared=20
%mem=10GB
%nosave
#b3lyp/svp scf=(tight,noincore,xqc) Test 
#IOP(5/87=12) Density=Current Pop=(MK,readradii) iop(6/33=2) iop(6/42=6)

holoCaM-CaMKII.loop2.water2.frame477 

   -2  1 
C         61.82491       78.20959       77.60163
C         62.06146       79.21245       78.69849
O         62.62819       78.85524       79.71965
H         61.33067       78.67664       76.72210
H         62.79856       77.79475       77.26365
H         61.18256       77.38322       77.96780
N         61.66563       80.50401       78.53955
C         61.94372       81.56855       79.49962
C         61.28021       81.31514       80.85133
O         60.07871       81.08558       80.87788
C         61.42945       82.90784       78.92814
C         61.90984       84.09419       79.70939
O         62.81767       83.94467       80.69016
O         61.52203       85.21216       79.41324
H         61.18454       80.75227       77.66046
H         63.04742       81.64488       79.61149
H         60.31744       82.89108       78.90552
H         61.79734       83.04513       77.88868
N         61.99699       81.39079       82.01620
C         61.41146       81.16775       83.33814
C         61.46986       82.38877       84.27156
O         60.89175       82.29126       85.34563
C         62.12161       79.97599       83.99279
H         63.00089       81.60608       81.96232
H         60.33644       80.90535       83.23343
H         62.03431       79.07689       83.34535
H         63.20097       80.20086       84.13801
H         61.67128       79.73801       84.98000
N         62.14906       83.54320       83.97613
C         62.27614       84.66134       84.93182
C         62.27616       86.06207       84.29006
O         62.36855       87.02722       85.03610
C         63.54348       84.45390       85.80052
C         64.81394       84.45582       85.00299
O         65.86601       84.11026       85.51550
O         64.76944       84.74386       83.69577
H         62.71548       83.55505       83.12282
H         61.41487       84.63913       85.63533
H         63.45020       83.45999       86.29116
H         63.61314       85.22281       86.59921
N         62.17158       86.26796       82.94264
C         62.13739       87.58992       82.32072
C         63.43342       88.39807       82.37359
O         63.40558       89.53232       81.91795
H         62.03268       85.46692       82.32302
H         61.32311       88.17719       82.79742
H         61.87907       87.47297       81.24588
N         64.59321       87.91620       82.90631
C         65.80894       88.71953       83.06067
C         66.46093       89.19329       81.75482
O         67.35628       90.02244       81.84165
C         66.85311       87.97753       83.93390
C         67.39418       86.69419       83.34851
N         68.37103       86.02596       83.99835
O         66.96412       86.25129       82.29595
H         64.58981       86.97378       83.29145
H         65.51343       89.63054       83.62591
H         66.40186       87.73734       84.92112
H         67.71215       88.65972       84.10982
H         68.75002       86.37413       84.89005
H         68.76177       85.16608       83.59885
N         66.10213       88.71450       80.52863
C         66.67063       89.19380       79.27115
C         67.48454       88.14838       78.52455
O         67.87531       88.42622       77.39954
H         65.38612       87.98467       80.47089
H         67.33542       90.07214       79.42541
H         65.82904       89.52828       78.62879
N         67.85517       86.97079       79.10445
C         68.73953       85.99199       78.47571
C         68.23255       84.57040       78.64271
O         67.70754       84.23423       79.69550
C         70.14053       86.04494       79.14618
C         70.90613       87.31600       78.78416
O         70.03370       85.96498       80.54693
H         67.58738       86.80140       80.07785
H         68.88321       86.19853       77.39116
H         70.77196       85.20697       78.76355
H         69.91781       85.00884       80.78268
H         71.05253       87.36907       77.68363
H         70.36694       88.22179       79.12808
H         71.90882       87.29177       79.26343
N         68.60006       83.62639       77.72764
C         68.57505       82.19539       78.01918
C         69.54315       81.93140       79.15871
O         70.70555       82.30367       79.06415
C         68.95491       81.34677       76.75522
C         67.73554       81.31967       75.79490
C         69.37679       79.90368       77.12735
C         67.97873       80.58630       74.47379
H         69.04678       83.93745       76.85081
H         67.55904       81.87557       78.33348
H         69.83486       81.81029       76.25548
H         67.43439       82.36063       75.55303
H         66.88018       80.82426       76.30859
H         70.27841       79.91275       77.77494
H         68.55880       79.36824       77.65190
H         69.68463       79.32494       76.23507
H         68.21289       79.51409       74.63181
H         67.05326       80.62470       73.86139
H         68.80362       81.06941       73.91126
N         69.13241       81.19844       80.22792
C         70.01881       80.74805       81.28863
C         70.31546       79.28128       81.07952
O         69.80188       78.68941       80.13770
C         69.35179       80.95719       82.66151
C         69.13869       82.39937       82.98067
O         68.44283       83.09418       82.26124
O         69.70370       82.92757       84.08295
H         68.17068       80.83268       80.23045
H         70.99294       81.28412       81.25456
H         69.99455       80.53485       83.46123
H         68.37105       80.43159       82.68487
N         71.17908       78.62702       81.90079
C         71.48407       77.21826       81.72775
C         70.24716       76.35018       81.96958
O         70.02499       75.46424       81.16185
C         72.67151       76.77265       82.60089
C         73.13002       75.39410       82.19333
C         73.71165       75.18739       80.92708
C         72.97293       74.30461       83.06231
C         74.12576       73.91109       80.54046
C         73.38207       73.02732       82.66793
C         73.95863       72.83076       81.40941
H         71.65582       79.15552       82.64820
H         71.81838       77.08755       80.67313
H         72.39347       76.79509       83.67023
H         73.52827       77.46933       82.46762
H         73.84943       76.01404       80.24010
H         72.52143       74.44189       84.03660
H         74.57434       73.76051       79.56653
H         73.24952       72.18903       83.33814
H         74.27567       71.84164       81.10695
N         69.37211       76.53675       83.01804
C         68.16330       75.73578       83.22200
C         67.12323       75.82065       82.10588
O         66.10597       75.14851       82.21440
C         67.54514       76.32632       84.49989
C         68.76015       76.83848       85.23782
C         69.54014       77.48226       84.10046
H         68.48886       74.68422       83.38124
H         66.94832       77.23318       84.23801
H         66.88786       75.63123       85.06454
H         68.53741       77.52284       86.08426
H         69.33554       75.96291       85.61477
H         69.05715       78.43576       83.80919
H         70.58169       77.65294       84.42222
N         67.28256       76.64949       81.03375
C         66.29301       76.84606       79.98050
C         66.81066       76.37467       78.63082
O         66.05091       76.40547       77.67314
C         65.98340       78.34842       79.86968
C         65.59120       78.96081       81.21516
C         65.53379       80.44706       81.15504
O         65.42429       81.10637       82.30656
O         65.66021       81.06724       80.11105
H         68.12476       77.22601       80.97262
H         65.36405       76.28164       80.21509
H         65.19374       78.54186       79.11167
H         66.91582       78.85521       79.53190
H         66.37958       78.73670       81.96337
H         64.62774       78.55261       81.58782
N         68.09507       75.94968       78.46408
C         68.61219       75.50802       77.19260
H         69.68384       75.23347       77.30474
H         68.04899       74.61595       76.85036
H         68.53109       76.32529       76.44605
H         68.74985       75.94734       79.24851
Ca        65.63822       83.29723       82.32095
O         64.65516       85.81958       79.51603
H         64.73426       86.38753       78.70918
H         63.93781       86.24668       80.04864
O         64.84643       83.36419       78.02800
H         64.39204       83.49101       77.15825
H         65.29983       82.49017       77.94165

Ca 1.0



