%chk=holoCaM-CaMKII.loop4.water1.frame458.chk
%nprocshared=20
%mem=10GB
%nosave
#b3lyp/svp scf=(tight,noincore,xqc) Test 
#IOP(5/87=12) Density=Current Pop=(MK,readradii) iop(6/33=2) iop(6/42=6)

holoCaM-CaMKII.loop4.water1.frame458 

   -3  1 
C         67.39154       54.34411       24.64028
C         66.33879       54.25806       23.58234
O         65.31527       53.63155       23.82172
H         68.25171       54.95922       24.30340
H         66.95044       54.82455       25.54040
H         67.74535       53.32715       24.90091
N         66.48997       54.91619       22.39974
C         65.40791       54.98649       21.43942
C         65.15821       53.63722       20.75984
O         66.04280       53.13555       20.08002
C         65.67541       56.07983       20.38420
C         64.41007       56.39145       19.65516
O         64.40572       57.18185       18.73584
O         63.27931       55.78313       20.04101
H         67.34341       55.47294       22.23847
H         64.51557       55.31576       22.02188
H         66.46070       55.74231       19.67265
H         66.01142       57.02063       20.86983
N         63.96274       52.99960       20.91266
C         63.66425       51.68554       20.34525
C         63.22938       51.82478       18.89196
O         63.90435       51.28225       18.02670
C         62.57389       50.93008       21.17715
C         62.96936       50.86819       22.67827
C         62.34703       49.51104       20.60998
C         61.90005       50.23488       23.56983
H         63.27417       53.44520       21.52348
H         64.58551       51.06093       20.41003
H         61.61488       51.48129       21.10050
H         63.11371       51.89662       23.06585
H         63.92751       50.31960       22.80409
H         63.27310       48.90324       20.69632
H         61.52637       48.99068       21.14314
H         62.04382       49.54857       19.54333
H         60.92943       50.75464       23.43698
H         61.76472       49.15940       23.34544
H         62.21034       50.32363       24.63240
N         62.07928       52.49326       18.55421
C         61.55644       52.51543       17.19059
C         62.20380       53.56086       16.29296
O         61.89111       53.58533       15.11177
C         60.00858       52.46419       17.14756
C         59.11960       53.59559       17.61854
O         59.52227       54.76587       18.14129
O         57.91778       53.44461       17.47683
H         61.50842       52.91110       19.30176
H         61.82706       51.53988       16.72097
H         59.69614       51.55620       17.70839
H         59.72988       52.30269       16.08267
N         63.18340       54.38924       16.75344
C         63.96773       55.24930       15.88414
C         63.17548       56.35201       15.23127
O         63.18090       56.43738       14.01014
H         63.46161       54.35169       17.74226
H         64.46629       54.62448       15.11040
H         64.76809       55.72979       16.48600
N         62.51607       57.27140       15.98701
C         61.87558       58.46179       15.43430
C         62.46109       59.75741       16.01252
O         62.03113       60.82017       15.59241
C         60.34725       58.38052       15.61089
C         59.90684       58.13342       17.02125
O         59.19682       57.17804       17.27578
O         60.26571       58.96695       18.00581
H         62.49074       57.13171       17.00861
H         62.05262       58.52597       14.33815
H         59.96608       57.54921       14.97763
H         59.88362       59.32135       15.24679
N         63.45122       59.75137       16.95492
C         64.08865       60.94399       17.48721
C         63.81834       61.15625       18.96299
O         64.41937       62.07119       19.51198
H         63.81312       58.86705       17.30456
H         63.75929       61.86203       16.95676
H         65.18441       60.84082       17.32641
N         62.89088       60.43162       19.66133
C         62.52102       60.76240       21.03604
C         62.35784       59.55116       21.93241
O         62.40395       58.41816       21.47022
C         61.27471       61.69201       21.04401
C         60.03483       61.26863       20.22329
C         59.24006       60.07207       20.69458
N         58.12786       59.70855       20.01223
O         59.56646       59.44128       21.68614
H         62.33626       59.71778       19.16984
H         63.34221       61.34604       21.50869
H         61.61128       62.64459       20.57962
H         60.96965       61.93489       22.08300
H         60.34127       61.12163       19.16911
H         59.33148       62.12873       20.23719
H         57.82736       60.23458       19.17773
H         57.56080       58.90417       20.31681
N         62.17107       59.75618       23.26863
C         61.94711       58.71369       24.25778
C         60.61889       59.00260       24.94136
O         60.54633       59.96041       25.70156
C         63.13872       58.71719       25.26832
C         62.89863       57.85744       26.51654
C         64.42856       58.24239       24.57859
H         62.18719       60.72750       23.61834
H         61.88892       57.71664       23.77388
H         63.29043       59.75972       25.62903
H         62.76675       56.79784       26.24180
H         63.76994       57.93708       27.20237
H         62.01126       58.20953       27.08220
H         64.31811       57.18945       24.23655
H         64.66990       58.87787       23.70213
H         65.28532       58.29263       25.28470
N         59.51156       58.23616       24.70093
C         58.25469       58.45410       25.41371
C         58.37114       57.91734       26.83442
O         59.38936       57.32851       27.16486
C         56.99616       57.93133       24.65713
C         56.81886       56.44017       24.47615
N         57.53463       55.74399       23.56726
O         55.93989       55.86699       25.10154
H         59.57420       57.49439       24.00009
H         58.08777       59.55304       25.46961
H         56.92184       58.41714       23.66034
H         56.11633       58.28790       25.23468
H         58.22366       56.20493       22.96441
H         57.35590       54.73817       23.42660
N         57.37523       58.10973       27.74404
C         57.46286       57.65296       29.13201
C         57.62516       56.14081       29.22511
O         58.28456       55.68605       30.15026
C         56.23122       58.13449       29.91826
C         56.24037       57.72690       31.37131
C         56.88272       58.51395       32.34301
C         55.57058       56.55856       31.76690
C         56.84059       58.13952       33.69183
C         55.53599       56.18318       33.11092
C         56.16473       56.97666       34.08033
O         56.12014       56.63462       35.38381
H         56.53507       58.62732       27.44555
H         58.36126       58.12248       29.59341
H         55.31200       57.74174       29.43277
H         56.16806       59.24410       29.85793
H         57.40112       59.42240       32.06132
H         55.07476       55.93809       31.03079
H         57.32593       58.75730       34.43752
H         55.01358       55.27927       33.39670
H         55.64572       55.84899       35.69232
N         57.08316       55.29995       28.29819
C         57.35263       53.86389       28.29540
C         58.83408       53.63545       28.04475
O         59.48011       52.97946       28.84993
C         56.51394       53.12139       27.22989
C         55.00792       53.20995       27.53334
C         54.19983       52.40462       26.55706
O         53.43191       51.38834       26.99606
O         54.22096       52.67416       25.36678
H         56.49516       55.69989       27.55472
H         57.07360       53.42742       29.28150
H         56.80229       52.04568       27.24756
H         56.72687       53.51836       26.21360
H         54.66387       54.26425       27.49434
H         54.82019       52.81773       28.55699
N         59.44371       54.18551       26.95286
C         60.87072       54.02162       26.66029
C         61.76608       54.66188       27.72388
O         62.97147       54.45948       27.66339
C         61.22762       54.61955       25.27174
C         60.42916       53.96513       24.13578
C         60.74889       54.53690       22.78336
O         61.00715       53.79089       21.85907
O         60.67610       55.85814       22.55174
H         58.85812       54.73916       26.31164
H         61.08972       52.93102       26.63293
H         62.31312       54.47638       25.07103
H         61.00727       55.70882       25.27963
H         59.35574       54.11833       24.30730
H         60.61294       52.87441       24.13263
N         61.26732       55.45749       28.71225
C         62.09607       56.06834       29.72690
H         62.85401       56.72779       29.25741
H         61.46490       56.68503       30.40418
H         62.59898       55.28372       30.32908
H         60.26707       55.66101       28.75305
Ca        61.29787       55.65480       19.11803
O         58.04269       56.11099       20.25363
H         57.11258       56.44376       20.31532
H         57.96645       55.13590       20.40824

Ca 1.0



