%chk=holoCaM.loop3.water2.frame138.chk
%nprocshared=20
%mem=10GB
%nosave
#b3lyp/svp scf=(tight,noincore,xqc) Test 
#IOP(5/87=12) Density=Current Pop=(MK,readradii) iop(6/33=2) iop(6/42=6)

holoCaM.loop3.water2.frame138 

   0  1 
C         14.93295      100.09305       90.22552
C         15.56531       99.01246       91.04754
O         16.60953       98.50858       90.65811
H         13.99840      100.46463       90.69630
H         15.64098      100.94231       90.12785
H         14.69124       99.69613       89.21832
N         14.99383       98.61074       92.21581
C         15.58994       97.58955       93.06230
C         15.59873       96.26012       92.33900
O         14.53309       95.75814       92.00593
C         14.80010       97.47692       94.37309
C         15.48706       96.66429       95.42374
O         16.70378       96.11663       95.24797
O         14.98832       96.61899       96.53237
H         14.12485       99.07376       92.52597
H         16.62294       97.92297       93.31494
H         13.77725       97.08335       94.18814
H         14.70242       98.49890       94.80365
N         16.77360       95.64485       92.03616
C         16.82572       94.37406       91.32372
C         16.22568       93.27907       92.18388
O         15.22531       92.69457       91.79107
C         18.27708       94.02945       90.92505
C         18.82125       95.02562       89.88680
C         20.28155       94.71865       89.53151
C         20.80429       95.56613       88.35753
N         20.75625       97.00498       88.62428
H         17.65398       96.11112       92.30424
H         16.23404       94.45957       90.38332
H         18.29887       93.01479       90.46924
H         18.92968       94.02438       91.82493
H         18.75982       96.06033       90.28283
H         18.19333       94.95574       88.97178
H         20.36575       93.65217       89.22924
H         20.91950       94.87734       90.42907
H         20.20998       95.34020       87.44449
H         21.85814       95.26890       88.16065
H         21.28925       97.23265       89.49432
H         21.19001       97.51025       87.81800
H         19.76757       97.33183       88.71034
N         16.79137       92.95051       93.37944
C         16.25747       91.90969       94.25727
C         14.88858       92.26094       94.86119
O         14.29058       91.38645       95.47277
C         17.29493       91.53463       95.33876
C         17.76341       92.71687       96.13698
O         18.94267       93.03258       96.13642
O         16.88643       93.45059       96.83170
H         17.65716       93.43928       93.64954
H         16.11301       90.99107       93.64459
H         18.17965       91.08924       94.83110
H         16.87366       90.76197       96.01712
N         14.30354       93.48352       94.68880
C         12.92775       93.78554       95.06577
C         12.61458       93.86982       96.55069
O         11.45403       94.10926       96.85520
H         14.80664       94.21456       94.17305
H         12.26103       93.03145       94.59349
H         12.66023       94.77593       94.63687
N         13.54773       93.71130       97.53509
C         13.20733       93.78854       98.96171
C         12.86281       95.20722       99.44416
O         12.61072       95.37306      100.62964
C         14.33058       93.17166       99.82883
C         15.53125       94.06047      100.04325
N         15.94822       94.35003      101.29821
O         16.13818       94.51539       99.08983
H         14.50695       93.46815       97.26767
H         12.33099       93.12159       99.12454
H         14.64766       92.20893       99.37167
H         13.90308       92.92694      100.82571
H         15.45668       93.97576      102.12295
H         16.78123       94.93408      101.44985
N         12.82180       96.27314       98.59266
C         12.49143       97.62817       98.99564
C         13.64518       98.41670       99.58941
O         13.42966       99.59390       99.84109
H         12.94233       96.12610       97.58735
H         11.60091       97.62930       99.65956
H         12.20973       98.18776       98.07522
N         14.89227       97.89173       99.79901
C         16.03128       98.71296      100.22577
C         17.17780       98.64196       99.19477
O         16.66175       98.34869       97.94430
C         16.56362       98.24530      101.58353
C         15.56853       98.51706      102.67267
C         14.63868       97.54173      103.06184
C         15.56656       99.76908      103.30641
C         13.71716       97.81885      104.07620
C         14.65089      100.04183      104.32282
C         13.72138       99.06679      104.71157
O         12.83104       99.31845      105.69148
H         15.06497       96.89582       99.60714
H         15.72484       99.77995      100.31044
H         17.51021       98.77027      101.83991
H         16.81745       97.16906      101.53623
H         14.62352       96.57370      102.57724
H         16.27928      100.53155      103.01478
H         13.00004       97.06282      104.36877
H         14.66620      101.01071      104.80559
H         12.80676      100.16756      106.15562
N         17.88311       99.93087       99.12894
C         19.07275       99.92314       98.24741
C         20.31215      100.24053       99.07522
O         20.36131      101.29493       99.69550
C         18.88277      100.94609       97.07423
C         17.63290      100.57330       96.22614
C         20.13692      100.99174       96.17781
C         17.34379      101.50800       95.04855
H         18.09652      100.28183      100.09182
H         19.21113       98.92078       97.77908
H         18.73437      101.96075       97.50560
H         16.73633      100.60420       96.87903
H         17.74751       99.54236       95.82228
H         20.04789      101.77195       95.39555
H         21.04184      101.25309       96.76164
H         20.28320      100.01176       95.68478
H         16.40928      101.17954       94.54462
H         17.21114      102.55101       95.40329
H         18.15063      101.46978       94.28869
N         21.36779       99.38087       99.09287
C         22.61262       99.64948       99.80852
C         23.66062      100.11912       98.82574
O         23.34434      100.20249       97.65241
C         23.05234       98.38762      100.58277
O         23.17841       97.24760       99.76442
H         21.32439       98.54213       98.49262
H         22.47980      100.48110      100.53484
H         22.27157       98.16641      101.34061
H         24.00631       98.56916      101.12202
H         23.54677       97.51674       98.88428
N         24.90700      100.51199       99.21814
C         25.87682      101.03369       98.25611
C         26.39929       99.97052       97.29124
O         26.99602      100.34929       96.29331
C         27.04638      101.71809       98.96610
H         25.13769      100.50775      100.22422
H         25.35853      101.82122       97.66110
H         27.73620      102.17292       98.22263
H         26.66246      102.53127       99.61941
H         27.60775      100.98904       99.58684
N         26.22428       98.62957       97.50897
C         26.64594       97.61329       96.53712
C         25.79081       97.63868       95.26927
O         26.10143       96.93165       94.32015
C         26.52082       96.21578       97.15493
H         25.78774       98.32031       98.38889
H         27.71443       97.79218       96.28451
H         27.13407       96.14774       98.07742
H         25.45951       96.00562       97.41482
H         26.87224       95.44060       96.44067
N         24.66257       98.39199       95.22115
C         23.69263       98.43883       94.14361
C         23.64468       99.84955       93.57620
O         23.72569       99.99871       92.36601
C         22.31793       98.03801       94.71809
C         22.30024       96.59001       95.23472
C         20.98260       96.26512       95.87449
O         19.95081       96.32620       95.22566
O         20.93654       95.89640       97.16917
H         24.42007       98.94100       96.04249
H         23.94686       97.73286       93.32098
H         21.53613       98.15046       93.93480
H         22.07697       98.71374       95.56466
H         23.09996       96.44629       95.99288
H         22.48024       95.88686       94.39330
N         23.55348      100.93585       94.39899
C         23.52934      102.30785       93.94407
H         22.63215      102.81004       94.36309
H         24.43419      102.83192       94.32139
H         23.50335      102.38678       92.83913
H         23.53234      100.80698       95.41211
Ca        17.77319       96.52782       97.15370
O         19.20547       96.31836      100.18950
H         19.59134       96.66173       99.34577
H         19.54716       96.93585      100.88358
O         18.76866       93.24996       99.31517
H         19.55430       92.69931       99.55612
H         18.02645       92.59875       99.24018

Ca 1.0



