%chk=holoCaM.loop1.water2.frame153.chk
%nprocshared=20
%mem=10GB
%nosave
#b3lyp/svp scf=(tight,noincore,xqc) Test 
#IOP(5/87=12) Density=Current Pop=(MK,readradii) iop(6/33=2) iop(6/42=6)

holoCaM.loop1.water2.frame153 

   0  1 
C        -10.04809       55.85096        1.86778
C         -9.64582       54.50971        1.33133
O        -10.50641       53.70009        1.01759
H        -11.15275       55.94128        1.92920
H         -9.61588       55.99209        2.88072
H         -9.66056       56.64666        1.19591
N         -8.32598       54.21920        1.18437
C         -7.83297       52.96676        0.62489
C         -8.24649       51.77320        1.48973
O         -7.79050       51.64727        2.61704
C         -6.30539       53.08606        0.44744
C         -5.64755       51.86594       -0.09832
O         -5.98363       51.40491       -1.17299
O         -4.63113       51.31190        0.58120
H         -7.64567       54.95004        1.44879
H         -8.27524       52.85276       -0.38857
H         -5.83426       53.32928        1.42428
H         -6.10023       53.92441       -0.25416
N         -9.16531       50.88430        1.01020
C         -9.68794       49.73140        1.75156
C         -8.73354       48.54552        1.77428
O         -8.97822       47.62037        2.53710
C        -10.94916       49.19347        1.02773
C        -12.12832       50.17123        1.03894
C        -13.23743       49.67005        0.10371
C        -14.47592       50.56840        0.18192
N        -15.47450       50.16671       -0.80819
H         -9.56458       51.08150        0.08197
H         -9.96211       50.03759        2.78565
H        -11.30308       48.24819        1.49879
H        -10.66396       48.95797       -0.02349
H        -11.81307       51.17531        0.68683
H        -12.50082       50.26203        2.08251
H        -13.53020       48.63021        0.36817
H        -12.84419       49.66833       -0.93748
H        -14.19196       51.62792       -0.00245
H        -14.90990       50.49231        1.20414
H        -16.32857       50.75814       -0.69123
H        -15.09393       50.31111       -1.77223
H        -15.73467       49.16200       -0.67999
N         -7.78718       48.40344        0.80655
C         -7.12040       47.13563        0.50456
C         -5.60486       47.18315        0.60241
O         -4.97408       46.15925        0.37608
C         -7.59990       46.63596       -0.88270
C         -7.46364       47.57896       -2.07251
O         -6.96907       48.83806       -1.96357
O         -7.85736       47.18984       -3.15895
H         -7.62923       49.19647        0.17860
H         -7.42493       46.35399        1.23679
H         -8.68441       46.40474       -0.78755
H         -7.08448       45.67719       -1.11232
N         -4.94937       48.30575        0.98509
C         -3.51068       48.37460        1.17121
C         -2.71948       48.13581       -0.09341
O         -1.74996       47.39231       -0.05023
H         -5.49317       49.14922        1.20351
H         -3.18738       47.67263        1.97019
H         -3.26012       49.39879        1.51735
N         -3.04270       48.78510       -1.24355
C         -2.19356       48.80009       -2.43301
C         -1.81462       50.23531       -2.80963
O         -1.10692       50.41536       -3.79128
C         -2.87427       48.06705       -3.60621
C         -4.23336       48.59738       -3.92602
O         -5.19231       47.84640       -3.95394
O         -4.40055       49.89967       -4.18834
H         -3.91832       49.33069       -1.26364
H         -1.23846       48.26372       -2.24595
H         -2.96280       46.98593       -3.36331
H         -2.23533       48.15761       -4.51128
N         -2.24070       51.30653       -2.07780
C         -1.93830       52.68390       -2.40075
C         -2.52304       53.09004       -3.72591
O         -1.80747       53.68020       -4.51849
H         -2.81016       51.17204       -1.23504
H         -0.84108       52.86132       -2.37396
H         -2.40479       53.33234       -1.62570
N         -3.84555       52.88058       -3.98798
C         -4.54157       53.42048       -5.15022
C         -6.07857       53.42176       -4.86981
O         -6.67710       52.18256       -5.19924
C         -4.21141       52.75254       -6.53267
C         -2.83236       53.05971       -7.13951
O         -4.43212       51.36708       -6.50522
H         -4.41029       52.43365       -3.24891
H         -4.24719       54.49111       -5.20326
H         -4.92110       53.18686       -7.27008
H         -3.59982       50.93527       -6.17867
H         -2.78384       52.62882       -8.16308
H         -2.68017       54.15653       -7.21615
H         -2.00799       52.59230       -6.56953
N         -6.71993       54.48798       -5.66151
C         -8.09285       54.81025       -5.23665
C         -8.97692       54.56879       -6.43558
O         -8.91446       55.31026       -7.40708
C         -8.21511       56.27734       -4.69511
C         -7.43218       56.48841       -3.36934
C         -9.67493       56.74862       -4.54261
C         -8.01007       55.75521       -2.15024
H         -6.13737       55.35275       -5.74305
H         -8.42160       54.11476       -4.43692
H         -7.76049       56.95164       -5.45602
H         -7.42887       57.57464       -3.13117
H         -6.37445       56.17782       -3.50423
H        -10.19710       56.73845       -5.52127
H        -10.24207       56.10586       -3.84380
H         -9.69878       57.79734       -4.17596
H         -8.01125       54.65813       -2.29597
H         -7.39092       55.98204       -1.25761
H         -9.04206       56.09775       -1.92786
N         -9.79618       53.48648       -6.44064
C        -10.69168       53.15485       -7.53979
C        -11.90065       54.07938       -7.54177
O        -12.00856       54.94870       -6.68792
C        -11.16186       51.67963       -7.40034
C         -9.99434       50.68809       -7.55119
O        -11.85487       51.49356       -6.18937
H         -9.74251       52.84788       -5.63432
H        -10.15026       53.24160       -8.50815
H        -11.86056       51.42445       -8.22284
H        -11.22310       51.17257       -5.49559
H         -9.51278       50.81317       -8.54362
H         -9.22774       50.84390       -6.76405
H        -10.37689       49.64844       -7.47558
N        -12.88461       53.90196       -8.46487
C        -14.18066       54.57352       -8.40855
C        -14.91507       54.17026       -7.13326
O        -15.39751       55.04477       -6.43107
C        -15.03271       54.23581       -9.65684
C        -14.40433       54.84039      -10.92199
O        -15.16689       52.84401       -9.79722
H        -12.72710       53.20544       -9.20788
H        -14.04228       55.67929       -8.40435
H        -16.03854       54.69648       -9.52033
H        -15.83229       52.68694      -10.51643
H        -13.39063       54.42903      -11.10810
H        -15.04157       54.62211      -11.80418
H        -14.32786       55.94431      -10.81735
N        -15.01661       52.85937       -6.76148
C        -15.66660       52.42085       -5.52019
C        -14.99909       52.93883       -4.23536
O        -15.57598       52.72158       -3.17791
C        -15.81612       50.87416       -5.46481
C        -14.49756       50.08660       -5.57826
C        -14.72785       48.57837       -5.39871
C        -13.46862       47.73686       -5.68351
N        -13.12706       47.71719       -7.11003
H        -14.62680       52.15733       -7.40213
H        -16.70021       52.83265       -5.52724
H        -16.47499       50.55193       -6.30085
H        -16.32770       50.60318       -4.51477
H        -13.77713       50.42282       -4.80528
H        -14.07066       50.26772       -6.57879
H        -15.54440       48.22169       -6.06308
H        -15.04065       48.41030       -4.34468
H        -13.67792       46.69108       -5.36747
H        -12.60725       48.10854       -5.08525
H        -12.86261       48.66557       -7.45549
H        -12.31223       47.07919       -7.25789
H        -13.93575       47.35223       -7.66528
N        -13.82570       53.64015       -4.23026
C        -13.21131       54.19829       -3.02225
C        -13.16192       55.72402       -3.04546
O        -12.78752       56.29954       -2.03271
C        -11.77620       53.66005       -2.86672
C        -11.74292       52.14648       -2.63217
C        -10.34284       51.59608       -2.57825
O         -9.36932       52.31615       -2.73372
O        -10.16081       50.28088       -2.36576
H        -13.33774       53.78940       -5.11588
H        -13.80570       53.92512       -2.12232
H        -11.27685       54.14936       -2.00003
H        -11.20660       53.91140       -3.78854
H        -12.28187       51.62644       -3.44561
H        -12.25421       51.92653       -1.67330
N        -13.51182       56.45588       -4.14008
C        -13.48524       57.90181       -4.14526
H        -14.20025       58.29465       -3.39178
H        -12.46174       58.26695       -3.91819
H        -13.78365       58.28048       -5.14679
H        -13.79415       55.99334       -5.00590
Ca        -6.95742       50.50546       -3.58349
O         -9.58815       48.67159       -5.05581
H         -9.88163       48.40997       -4.14866
H         -9.37398       47.81509       -5.50398
O         -7.08574       49.14555       -6.52242
H         -6.35788       49.71643       -6.17557
H         -6.83920       48.97850       -7.46570

Ca 1.0



