%chk=holoCaM-CaMKII.loop1.water2.frame175.chk
%nprocshared=20
%mem=10GB
%nosave
#b3lyp/svp scf=(tight,noincore,xqc) Test 
#IOP(5/87=12) Density=Current Pop=(MK,readradii) iop(6/33=2) iop(6/42=6)

holoCaM-CaMKII.loop1.water2.frame175 

   0  1 
C         10.93680       59.63615        9.89749
C         11.72936       60.82316        9.44082
O         12.82755       61.02099        9.93568
H          9.96607       59.56623        9.36302
H         11.51656       58.71027        9.69841
H         10.73991       59.71883       10.98631
N         11.24656       61.64890        8.47320
C         11.99712       62.78973        7.96647
C         12.13659       63.85693        9.05769
O         11.10720       64.29901        9.54988
C         11.26918       63.36940        6.72466
C         12.13834       64.31989        5.96286
O         13.41412       64.48033        6.34254
O         11.71030       64.90195        4.98002
H         10.33000       61.42794        8.05266
H         12.99020       62.41250        7.63260
H         10.32470       63.86697        7.03635
H         11.01357       62.55020        6.01863
N         13.35722       64.31372        9.49264
C         13.50032       65.27247       10.59482
C         14.09195       66.62296       10.19623
O         14.09172       67.49735       11.05270
C         14.33800       64.68005       11.74665
C         13.80438       63.32856       12.22801
C         14.49332       62.89258       13.52748
C         14.09487       61.47593       13.97582
N         12.64971       61.32342       14.15664
H         14.20928       63.94433        9.06124
H         12.49384       65.50403       11.00608
H         14.30669       65.40148       12.59341
H         15.39890       64.55466       11.43328
H         13.99127       62.57703       11.43629
H         12.71273       63.41446       12.41245
H         14.23616       63.62057       14.32859
H         15.59668       62.90452       13.38915
H         14.60835       61.26666       14.94071
H         14.45187       60.73282       13.22916
H         12.45777       60.38021       14.56448
H         12.28136       62.05672       14.80448
H         12.15960       61.37726       13.23483
N         14.57113       66.90325        8.94715
C         14.97641       68.25745        8.54747
C         13.98993       68.83480        7.52996
O         14.15536       69.98408        7.14576
C         16.46420       68.31302        8.11164
C         16.76700       67.42841        6.94867
O         16.12660       67.61863        5.78760
O         17.49537       66.45861        7.08833
H         14.58801       66.16038        8.23384
H         14.91213       68.95087        9.41329
H         17.08637       67.99481        8.97740
H         16.74941       69.35548        7.85376
N         12.88304       68.13621        7.13004
C         11.80183       68.71382        6.35316
C         12.19292       69.10889        4.95508
O         12.02012       70.26584        4.59951
H         12.72502       67.17456        7.46052
H         11.38960       69.58850        6.90237
H         10.98532       67.96271        6.26580
N         12.66170       68.17506        4.08376
C         12.89686       68.43966        2.66762
C         11.98837       67.57189        1.79268
O         12.16411       67.56884        0.58208
C         14.40032       68.30325        2.32976
C         15.01202       66.93798        2.46239
O         16.32231       66.77767        2.19926
O         14.34874       65.97306        2.79185
H         12.80907       67.21670        4.43065
H         12.64875       69.49499        2.41994
H         14.96180       68.99729        2.99243
H         14.55809       68.63450        1.28093
N         10.94519       66.86553        2.33001
C         10.00807       66.07839        1.54461
C         10.54861       64.74139        1.07980
O          9.78624       64.01330        0.46084
H         10.73627       66.94472        3.33491
H          9.63337       66.68016        0.68800
H          9.13368       65.83857        2.18894
N         11.82198       64.32967        1.35066
C         12.33987       63.01682        0.97450
C         12.85220       62.26728        2.19997
O         12.93381       62.83492        3.27904
C         13.45265       63.15464       -0.09482
C         12.93334       63.79791       -1.38996
O         14.55864       63.86523        0.40335
H         12.45192       64.95949        1.85088
H         11.52458       62.40057        0.53620
H         13.80741       62.13840       -0.37079
H         14.32857       64.83006        0.41637
H         12.10015       63.19641       -1.81028
H         12.57029       64.83124       -1.20300
H         13.75207       63.84331       -2.13903
N         13.17835       60.94895        2.09123
C         13.65681       60.11558        3.19219
C         14.96883       59.46817        2.77444
O         15.03229       58.89791        1.69422
C         12.57251       59.05204        3.55146
C         11.30992       59.77587        4.09919
C         13.11014       58.04177        4.58892
C         10.13373       58.85064        4.41649
H         13.03675       60.49014        1.17833
H         13.83162       60.71312        4.11526
H         12.30379       58.48585        2.63186
H         10.94739       60.50459        3.34404
H         11.57432       60.33806        5.02218
H         13.98961       57.50027        4.18741
H         13.40111       58.55541        5.53027
H         12.36091       57.25862        4.81748
H         10.37831       58.13860        5.22979
H          9.27378       59.46172        4.76448
H          9.82836       58.29091        3.50800
N         16.03347       59.44842        3.62984
C         17.29620       58.77806        3.32300
C         17.39163       57.48308        4.10570
O         16.50644       57.17966        4.88838
C         18.52163       59.68209        3.64799
C         18.48749       61.03399        2.93558
O         18.67145       59.86470        5.03313
H         15.90767       59.84079        4.57085
H         17.33221       58.51268        2.24416
H         19.43992       59.16826        3.29446
H         17.94728       60.46487        5.33680
H         18.42745       60.89671        1.83670
H         17.61578       61.61612        3.28707
H         19.40864       61.60645        3.17953
N         18.45712       56.65834        3.93104
C         18.64481       55.42593        4.68873
C         18.78420       55.72650        6.17413
O         18.07047       55.12992        6.96826
C         19.88133       54.64471        4.17344
C         19.66008       54.14600        2.73727
O         21.03103       55.45043        4.22995
H         19.16622       56.92656        3.23367
H         17.76371       54.75899        4.54666
H         20.01547       53.75245        4.82865
H         21.81176       54.85156        4.10015
H         18.76566       53.48819        2.69589
H         19.51533       54.98897        2.03037
H         20.53907       53.55669        2.40206
N         19.68798       56.64550        6.61631
C         19.93741       56.92754        8.02771
C         18.67495       57.36151        8.75420
O         18.36974       56.78506        9.78892
C         21.07339       57.96535        8.15984
C         21.54626       58.12590        9.61405
C         22.85959       58.91686        9.68698
C         23.38560       58.97879       11.12802
N         24.69989       59.61882       11.18001
H         20.24137       57.15629        5.91113
H         20.31014       55.99063        8.50027
H         20.77910       58.94907        7.73054
H         21.93254       57.57336        7.57106
H         21.74376       57.11480       10.03293
H         20.75637       58.61610       10.22424
H         22.71596       59.94511        9.28895
H         23.61840       58.39605        9.06182
H         23.47846       57.94600       11.53314
H         22.66738       59.54162       11.76428
H         25.02937       59.64381       12.17209
H         25.38725       59.06774       10.61505
H         24.64392       60.59582       10.81244
N         17.86682       58.33280        8.24320
C         16.61247       58.75111        8.87499
C         15.71468       57.54291        9.09444
O         15.34733       57.28196       10.23179
C         15.89546       59.82861        8.02206
C         16.72651       61.12522        7.93587
C         16.09779       62.16456        7.05050
O         15.84278       61.91971        5.88376
O         15.88617       63.40411        7.51994
H         18.14121       58.75137        7.34404
H         16.83252       59.19938        9.87028
H         14.91221       60.07362        8.47973
H         15.71009       59.42330        7.00316
H         17.73086       60.91272        7.52860
H         16.86384       61.54538        8.95582
N         15.37519       56.72927        8.05759
C         14.60591       55.51002        8.20737
H         13.69564       55.56414        7.57604
H         15.22300       54.64863        7.87179
H         14.30160       55.32494        9.25887
H         15.70901       56.96144        7.11668
Ca        14.90488       65.82425        5.42186
O         16.32872       63.73117        2.66367
H         17.04977       63.65596        1.98864
H         15.79776       62.90229        2.55531
O         18.25708       64.05266        4.95442
H         18.43030       63.92286        5.92046
H         18.24354       65.03521        4.83218

Ca 1.0



