%chk=holoCaM-CaMKII.loop4.water1.frame314.chk
%nprocshared=20
%mem=10GB
%nosave
#b3lyp/svp scf=(tight,noincore,xqc) Test 
#IOP(5/87=12) Density=Current Pop=(MK,readradii) iop(6/33=2) iop(6/42=6)

holoCaM-CaMKII.loop4.water1.frame314 

   -3  1 
C         51.70436       34.19785       57.93553
C         50.61365       35.14935       58.30796
O         50.80014       36.34556       58.13007
H         52.62099       34.45122       58.50614
H         51.41694       33.14863       58.15110
H         51.91197       34.29498       56.84817
N         49.42059       34.69735       58.79126
C         48.32897       35.61879       59.05839
C         48.60035       36.46978       60.28861
O         49.38393       36.05540       61.13183
C         46.98544       34.88188       59.14691
C         45.88907       35.88712       59.07089
O         44.99872       35.91890       59.90110
O         45.93460       36.79690       58.07970
H         49.26219       33.68127       58.87667
H         48.27907       36.27861       58.16218
H         46.91254       34.23878       60.05328
H         46.88306       34.23233       58.25008
N         48.04180       37.71367       60.41071
C         48.38988       38.64280       61.48336
C         47.16947       39.06843       62.31711
O         47.38718       39.58783       63.40250
C         49.18511       39.85202       60.86922
C         50.38315       39.31321       60.02742
C         49.66922       40.83999       61.94650
C         51.27606       40.38118       59.39124
H         47.42698       38.05061       59.66156
H         49.07070       38.12799       62.19524
H         48.51558       40.41695       60.18596
H         49.98163       38.70564       59.18846
H         51.02481       38.65934       60.65659
H         48.81691       41.28656       62.49294
H         50.35332       40.33736       62.66138
H         50.19137       41.70239       61.48526
H         51.82153       40.95948       60.16372
H         52.03854       39.88557       58.75248
H         50.68241       41.07159       58.76128
N         45.87335       38.90247       61.90245
C         44.71718       39.32566       62.70672
C         43.68987       38.20644       62.92614
O         42.63054       38.48323       63.47197
C         44.08841       40.60773       62.11071
C         43.47729       40.48560       60.74732
O         43.46736       39.42500       60.15298
O         42.91989       41.57020       60.17742
H         45.68850       38.51523       60.96764
H         45.04393       39.64055       63.72173
H         44.87760       41.38968       62.06419
H         43.29699       40.97151       62.80177
N         43.96182       36.90911       62.60432
C         43.07534       35.78868       62.89984
C         41.89938       35.59141       61.95252
O         41.23497       34.57477       62.09932
H         44.89826       36.67394       62.25018
H         42.73139       35.83923       63.95623
H         43.68119       34.86114       62.80203
N         41.58040       36.46216       60.94954
C         40.50937       36.18707       59.97680
C         40.89375       35.08462       58.96541
O         40.05779       34.73889       58.14250
C         40.04765       37.48950       59.26107
C         41.12882       38.14672       58.46335
O         40.94505       39.21278       57.89912
O         42.32363       37.55666       58.43135
H         42.10148       37.34529       60.88612
H         39.61283       35.84246       60.53790
H         39.70740       38.20777       60.03811
H         39.18891       37.26844       58.59163
N         42.11120       34.45894       58.99233
C         42.44873       33.30183       58.17356
C         42.82888       33.56764       56.72979
O         43.13769       32.58711       56.06500
H         42.79690       34.71266       59.71189
H         41.62168       32.56124       58.22501
H         43.34458       32.81741       58.62220
N         42.88379       34.81212       56.16805
C         43.35333       35.02916       54.79466
C         44.61298       35.86385       54.76833
O         44.97973       36.42577       55.78248
C         42.22260       35.58673       53.89418
C         41.45571       36.84396       54.36758
C         42.22223       38.14647       54.32604
N         41.82097       39.15524       53.51578
O         43.18635       38.31615       55.05137
H         42.62430       35.63163       56.73400
H         43.65810       34.06098       54.34037
H         41.46229       34.77723       53.84028
H         42.59866       35.74693       52.85967
H         41.04784       36.68473       55.38735
H         40.58168       36.94313       53.68787
H         40.99911       39.05250       52.90285
H         42.33083       40.05123       53.50575
N         45.36797       35.94380       53.64198
C         46.58386       36.74207       53.53914
C         46.38941       37.71610       52.39879
O         46.17984       37.27762       51.27448
C         47.82512       35.81797       53.34576
C         49.11432       36.60779       53.04912
C         48.05718       34.97098       54.61227
H         45.07446       35.40291       52.81253
H         46.76624       37.32328       54.46841
H         47.64388       35.13945       52.48360
H         49.01525       37.19573       52.11337
H         49.36458       37.29271       53.88271
H         49.96804       35.90893       52.91036
H         48.26684       35.62739       55.48704
H         47.16987       34.34793       54.84547
H         48.92686       34.29287       54.47509
N         46.47983       39.05948       52.61493
C         46.40716       40.04410       51.54241
C         47.80990       40.53527       51.25101
O         48.73439       40.05794       51.88861
C         45.39304       41.18191       51.84158
C         45.77703       42.16912       52.92403
N         45.78122       41.83296       54.23315
O         46.03937       43.31953       52.60572
H         46.72801       39.38554       53.55820
H         46.05016       39.55654       50.60909
H         44.39046       40.75845       52.06490
H         45.28567       41.76261       50.90020
H         45.50251       40.89515       54.54398
H         46.02505       42.53586       54.94776
N         48.06688       41.44328       50.27214
C         49.42598       41.85941       49.93195
C         50.13981       42.50135       51.11273
O         51.30709       42.20911       51.32893
C         49.42061       42.83767       48.74655
C         50.83736       43.14665       48.32338
C         51.66252       42.12733       47.81350
C         51.35412       44.44353       48.46079
C         52.98331       42.40126       47.45385
C         52.67773       44.71472       48.10273
C         53.49710       43.69311       47.59907
O         54.77665       43.93983       47.25516
H         47.27617       41.82745       49.73283
H         49.99029       40.95159       49.62288
H         48.88032       43.76144       49.05140
H         48.88030       42.39339       47.88295
H         51.28629       41.11819       47.69813
H         50.73851       45.24022       48.85911
H         53.60846       41.60615       47.06680
H         53.06622       45.71755       48.22271
H         55.17242       44.81811       47.34567
N         49.47662       43.35667       51.93771
C         50.05824       43.96130       53.13496
C         50.72862       42.89816       53.99444
O         51.86270       43.09062       54.41039
C         48.93387       44.69705       53.91030
C         49.41104       45.43402       55.17031
C         48.25878       46.13151       55.84267
O         47.90858       45.79998       57.10030
O         47.63684       47.00314       55.25519
H         48.48329       43.53813       51.73122
H         50.82486       44.71167       52.83992
H         48.14842       43.96599       54.20264
H         48.47531       45.44528       53.22489
H         50.18095       46.18910       54.90266
H         49.85512       44.70709       55.88300
N         50.07740       41.74151       54.28311
C         50.62512       40.70277       55.15080
C         51.68679       39.84600       54.46149
O         52.53322       39.30190       55.15644
C         49.47937       39.82533       55.69376
C         48.44090       40.69289       56.43507
C         47.28418       39.89539       56.94339
O         46.94482       39.96085       58.24093
O         46.60457       39.23593       56.17644
H         49.12598       41.62580       53.90458
H         51.08695       41.19191       56.03770
H         49.88701       39.05706       56.38761
H         48.98199       39.31314       54.84331
H         48.02311       41.45880       55.75662
H         48.92471       41.22630       57.27790
N         51.67653       39.63942       53.11286
C         52.63253       38.81175       52.40154
H         53.40069       38.37310       53.07095
H         52.09598       37.98291       51.89046
H         53.14468       39.42382       51.62868
H         50.94978       40.07771       52.54567
Ca        44.29152       38.24240       57.76831
O         43.68607       41.19037       57.00360
H         44.35715       41.84771       57.31658
H         42.85037       41.44725       57.46811

Ca 1.0



