%chk=holoCaM-CaMKII.loop2.water1.frame180.chk
%nprocshared=20
%mem=10GB
%nosave
#b3lyp/svp scf=(tight,noincore,xqc) Test 
#IOP(5/87=12) Density=Current Pop=(MK,readradii) iop(6/33=2) iop(6/42=6)

holoCaM-CaMKII.loop2.water1.frame180 

   -2  1 
C        108.77319       59.24298        4.65919
C        109.26396       60.59319        4.21652
O        108.70441       61.17894        3.30183
H        107.89165       58.91820        4.06928
H        109.58366       58.49149        4.54496
H        108.48595       59.29086        5.73228
N        110.31832       61.15251        4.86353
C        110.87294       62.47404        4.57288
C        111.47125       62.48135        3.16807
O        112.27871       61.61119        2.87117
C        111.92918       62.77080        5.66332
C        112.52446       64.14559        5.79505
O        112.10506       65.23324        5.12456
O        113.40054       64.28910        6.62619
H        110.73152       60.60287        5.63493
H        110.06250       63.22155        4.66812
H        112.76742       62.05448        5.52101
H        111.46720       62.56965        6.65413
N        111.12083       63.43315        2.25371
C        111.60484       63.45003        0.87266
C        112.64177       64.53700        0.62816
O        113.25433       64.51657       -0.43084
C        110.41959       63.61605       -0.08874
H        110.50178       64.18893        2.56030
H        112.11151       62.48711        0.64511
H        109.68256       62.79887        0.05870
H        109.90883       64.58700        0.09664
H        110.75907       63.59950       -1.14675
N        112.90388       65.50705        1.55032
C        113.96525       66.50319        1.40473
C        114.92121       66.50363        2.60139
O        115.84871       67.30081        2.60376
C        113.35836       67.90086        1.15013
C        112.46810       68.44109        2.23647
O        112.22675       67.74071        3.35692
O        111.95030       69.53701        2.09561
H        112.31893       65.55064        2.39264
H        114.58358       66.27747        0.50820
H        112.76428       67.85229        0.21181
H        114.18711       68.62443        0.98819
N        114.78027       65.63119        3.64134
C        115.67727       65.58064        4.78278
C        115.67297       66.85000        5.61327
O        116.74586       67.39769        5.82038
H        114.03397       64.92632        3.61989
H        116.70588       65.34933        4.43293
H        115.38104       64.73930        5.43544
N        114.52043       67.36465        6.14411
C        114.49300       68.54062        7.01860
C        113.87074       68.23871        8.38793
O        113.73769       69.15516        9.18770
C        113.79295       69.72057        6.31662
C        112.28802       69.64332        6.29286
N        111.55600       70.63314        6.85482
O        111.72361       68.70018        5.76452
H        113.62728       66.91261        5.91812
H        115.53262       68.88913        7.20025
H        114.18827       69.81651        5.28180
H        114.07745       70.64899        6.85819
H        112.00677       71.43922        7.31083
H        110.53172       70.60811        6.82474
N        113.51020       66.97123        8.74565
C        113.00912       66.60419       10.05891
C        111.53915       66.89045       10.31691
O        111.09582       66.51641       11.39125
H        113.71024       66.19513        8.10597
H        113.64922       67.05645       10.84728
H        113.10726       65.49979       10.15707
N        110.70862       67.48948        9.40710
C        109.26303       67.64410        9.64689
C        108.48089       66.87553        8.58043
O        109.10607       66.28645        7.71487
C        108.86561       69.13542        9.71255
C        109.71539       69.90340       10.73469
O        108.99880       69.72738        8.45332
H        111.09032       67.81901        8.51001
H        108.98622       67.20106       10.62721
H        107.79791       69.18387       10.03067
H        108.44849       70.55460        8.46617
H        109.37101       70.95726       10.79843
H        109.62946       69.44113       11.74046
H        110.78428       69.90970       10.42930
N        107.10878       66.80475        8.60267
C        106.34984       65.99466        7.64311
C        105.38255       66.87313        6.84884
O        104.45304       67.41495        7.42784
C        105.55634       64.86869        8.38213
C        106.45982       64.04502        9.33565
C        104.87270       63.93892        7.35533
C        105.65812       63.10506       10.24476
H        106.59077       67.29852        9.34193
H        107.04769       65.49982        6.93530
H        104.77929       65.36030        9.00913
H        107.00204       64.73199       10.01858
H        107.21237       63.46830        8.75527
H        104.24409       63.16944        7.84175
H        104.19616       64.50903        6.69823
H        105.63398       63.43224        6.72268
H        105.11170       62.33091        9.67166
H        106.34571       62.58305       10.94174
H        104.92981       63.69110       10.84718
N        105.53840       67.03521        5.50161
C        104.58731       67.75999        4.65482
C        103.33084       66.92737        4.41968
O        103.26813       65.79971        4.87243
C        105.22719       68.06531        3.28333
C        106.43906       68.93614        3.41138
O        106.32706       70.16941        3.94093
O        107.52368       68.54232        3.01347
H        106.37036       66.63216        5.06018
H        104.32241       68.72497        5.14031
H        104.51036       68.61465        2.64003
H        105.49865       67.11012        2.77954
N        102.28341       67.42431        3.70074
C        101.08546       66.64360        3.39236
C        101.38520       65.48024        2.43660
O        101.02153       64.36770        2.79462
C         99.95465       67.56590        2.87920
C         98.66670       66.83020        2.57949
C         98.10655       66.89386        1.29123
C         98.00078       66.09449        3.57803
C         96.90518       66.23768        1.00841
C         96.80149       65.43537        3.28833
C         96.25325       65.50872        2.00552
H        102.33049       68.40286        3.38101
H        100.69668       66.22145        4.34597
H        100.27584       68.12801        1.98715
H         99.74266       68.32277        3.66503
H         98.59480       67.45700        0.50572
H         98.40277       66.03082        4.58065
H         96.47812       66.29750        0.01573
H         96.29400       64.87081        4.06004
H         95.32211       65.00304        1.78449
N        102.03274       65.61236        1.22888
C        102.34994       64.49534        0.33555
C        103.02890       63.34669        1.05219
O        102.64870       62.19740        0.88877
C        103.34600       65.10570       -0.66877
C        102.86405       66.52835       -0.75797
C        102.58044       66.84947        0.70415
H        101.42303       64.16081       -0.17997
H        104.36753       65.16753       -0.22521
H        103.42898       64.55842       -1.63163
H        103.56158       67.23614       -1.25535
H        101.89808       66.51985       -1.31095
H        103.51374       67.07652        1.25589
H        101.89470       67.70906        0.72587
N        104.05502       63.63381        1.88952
C        104.83608       62.66197        2.64023
C        103.93085       61.87314        3.56258
O        103.97249       60.65122        3.53372
C        105.93690       63.41645        3.40927
C        106.87515       64.12798        2.40413
C        107.88503       64.98381        3.06470
O        108.65474       65.64093        2.38296
O        107.97964       65.03017        4.39683
H        104.26738       64.63316        2.01855
H        105.34745       61.95665        1.94657
H        106.52976       62.71171        4.03366
H        105.46613       64.16632        4.08471
H        106.32676       64.80413        1.72424
H        107.40157       63.37068        1.78370
N        103.03084       62.51679        4.35354
C        102.06071       61.84681        5.19171
H        101.04002       62.09888        4.83077
H        102.17515       60.74362        5.17261
H        102.16710       62.20374        6.23629
H        102.99043       63.53945        4.32122
Ca       109.96210       65.72189        5.00573
O        108.72658       69.46986        5.47942
H        109.11443       70.05491        4.78042
H        108.10100       70.05890        5.97121

Ca 1.0



