%chk=holoCaM-CaMKII.loop3.water2.frame114.chk
%nprocshared=20
%mem=10GB
%nosave
#b3lyp/svp scf=(tight,noincore,xqc) Test 
#IOP(5/87=12) Density=Current Pop=(MK,readradii) iop(6/33=2) iop(6/42=6)

holoCaM-CaMKII.loop3.water2.frame114 

   0  1 
C         30.85900       27.48256       71.66472
C         30.79528       26.88539       73.02972
O         30.27109       25.79699       73.19086
H         31.91424       27.71926       71.41728
H         30.43633       26.79411       70.90572
H         30.26583       28.42297       71.67422
N         31.32952       27.57849       74.06528
C         31.23870       27.21771       75.47047
C         29.86987       27.63783       75.99912
O         29.76825       28.57925       76.77149
C         32.42056       27.90814       76.18424
C         32.39984       27.76685       77.65860
O         32.56991       28.85575       78.42234
O         32.20780       26.68942       78.17382
H         31.81685       28.45710       73.83157
H         31.38260       26.11947       75.61947
H         32.42652       28.99702       75.97290
H         33.36179       27.46203       75.79498
N         28.75797       26.97802       75.58316
C         27.39546       27.29544       75.99630
C         27.19323       26.99436       77.46360
O         26.48840       27.73104       78.13998
C         26.40225       26.48522       75.14863
C         26.51243       26.90961       73.67784
C         25.46179       26.21155       72.82546
C         25.60858       26.56873       71.34047
N         25.42577       28.00158       71.09483
H         28.88276       26.18587       74.94673
H         27.18311       28.37261       75.80968
H         25.36849       26.68787       75.50247
H         26.60381       25.39365       75.24631
H         27.51825       26.66802       73.27213
H         26.36377       28.00847       73.61766
H         24.44892       26.49927       73.18394
H         25.57567       25.11138       72.93637
H         24.83629       26.00057       70.78016
H         26.60997       26.24977       70.97131
H         26.24224       28.54659       71.45470
H         25.36040       28.16350       70.06498
H         24.54538       28.33826       71.54808
N         27.80264       25.91053       78.01593
C         27.76333       25.58234       79.43585
C         28.47635       26.62151       80.30295
O         28.23097       26.67349       81.50023
C         28.39835       24.19589       79.67159
C         29.88257       24.10271       79.30390
O         30.36098       24.25855       78.04325
O         30.68138       23.87592       80.19042
H         28.33010       25.29892       77.38276
H         26.69051       25.54237       79.74029
H         27.81449       23.43207       79.11405
H         28.28479       23.97056       80.75568
N         29.38261       27.47134       79.75447
C         30.06711       28.53220       80.46485
C         31.11520       28.05599       81.45105
O         31.28209       28.73010       82.45699
H         29.58359       27.38559       78.75735
H         29.32793       29.19907       80.96007
H         30.57877       29.17028       79.71956
N         31.90503       26.95841       81.22511
C         32.90876       26.50821       82.19506
C         34.28048       27.15796       81.97532
O         35.16043       26.99439       82.80789
C         32.92053       24.96029       82.29575
C         33.80298       24.22389       81.31398
N         34.65319       23.26398       81.75505
O         33.73518       24.46396       80.12305
H         31.73574       26.38481       80.39253
H         32.54703       26.83963       83.18935
H         31.87580       24.60217       82.19568
H         33.24853       24.67220       83.31306
H         34.68776       23.00930       82.75329
H         35.25840       22.74693       81.09989
N         34.52119       27.89869       80.85560
C         35.75881       28.58075       80.51573
C         36.44168       27.90151       79.35677
O         37.43242       28.42612       78.86529
H         33.79288       27.94644       80.14510
H         36.47789       28.60421       81.36148
H         35.50768       29.62619       80.23285
N         36.01382       26.67925       78.92932
C         36.71703       25.87057       77.96941
C         35.71753       25.47116       76.82308
O         34.99697       24.30360       77.17794
C         37.33215       24.67878       78.76505
C         38.26664       25.14341       79.89045
C         39.56862       25.59892       79.60828
C         37.84552       25.12366       81.23903
C         40.42426       26.01418       80.64129
C         38.69845       25.55174       82.26771
C         39.99032       25.99571       81.97358
O         40.80227       26.40166       82.97383
H         35.20807       26.23045       79.37253
H         37.55792       26.45226       77.53126
H         37.87148       23.96496       78.10766
H         36.48677       24.12235       79.22545
H         39.93097       25.61962       78.59022
H         36.85143       24.79362       81.50156
H         41.42724       26.35077       80.40869
H         38.35655       25.53959       83.29712
H         41.70147       26.72463       82.81352
N         36.48676       25.24440       75.58896
C         35.79937       24.75074       74.38176
C         36.29468       23.34356       74.18236
O         37.49814       23.13238       74.10925
C         36.12784       25.62907       73.11176
C         35.38476       26.98842       73.17086
C         35.79238       24.90811       71.78090
C         35.88844       27.98886       72.11938
H         37.25023       25.93350       75.39718
H         34.69146       24.74014       74.50440
H         37.22388       25.81560       73.10163
H         35.55454       27.45055       74.16349
H         34.28700       26.83652       73.04368
H         34.71968       24.62633       71.72969
H         36.03721       25.53357       70.89978
H         36.41606       23.99799       71.66268
H         36.98683       28.11828       72.22356
H         35.66165       27.67125       71.08118
H         35.40257       28.97455       72.27214
N         35.39964       22.34205       73.99660
C         35.78034       21.00726       73.57782
C         35.56276       20.87933       72.09382
O         34.95944       21.74417       71.48391
C         34.95447       19.95247       74.33640
O         35.49667       19.75562       75.60947
H         34.40088       22.57964       73.98755
H         36.86748       20.83197       73.72543
H         34.96804       18.98125       73.79750
H         33.89401       20.29354       74.40978
H         34.90694       19.09735       76.06076
N         36.10039       19.81828       71.43962
C         35.90630       19.54728       70.02128
C         34.44079       19.23470       69.77244
O         33.85205       19.76032       68.83928
C         36.79078       18.36609       69.61450
H         36.67109       19.16016       71.99293
H         36.23555       20.42098       69.41352
H         36.72095       18.18788       68.52190
H         37.85035       18.60439       69.85921
H         36.50356       17.44430       70.16284
N         33.77478       18.45520       70.67132
C         32.33547       18.21063       70.67963
C         31.54760       19.50420       70.62624
O         30.62276       19.61004       69.83320
C         31.97190       17.46889       71.97646
H         34.32341       18.07336       71.45742
H         32.03964       17.58060       69.81348
H         32.33260       18.03864       72.86339
H         30.87328       17.34045       72.06801
H         32.45182       16.46776       71.98807
N         31.84930       20.52473       71.46613
C         31.11932       21.78688       71.48722
C         31.35611       22.57666       70.20554
O         30.44496       23.24774       69.74181
C         31.52577       22.57797       72.73391
C         31.12626       21.80536       74.01520
C         31.63984       22.44360       75.26200
O         31.31617       21.91595       76.45843
O         32.36912       23.41811       75.20338
H         32.64061       20.39428       72.11533
H         30.02920       21.58513       71.58417
H         31.00927       23.55425       72.74893
H         32.61705       22.76271       72.69457
H         31.51890       20.76789       74.01047
H         30.01809       21.75345       74.07055
N         32.54572       22.49474       69.55004
C         32.79981       23.10610       68.26667
H         33.84830       22.89458       67.95841
H         32.12331       22.65842       67.50848
H         32.65401       24.20398       68.31445
H         33.29799       21.93588       69.95086
Ca        32.67267       24.27613       77.64759
O         34.35487       21.77731       77.64065
H         34.65050       21.67921       76.70289
H         34.66148       20.95806       78.10060
O         32.16900       21.24797       79.43626
H         31.18049       21.21458       79.39879
H         32.38907       21.13460       80.39466

Ca 1.0



