%chk=holoCaM-CaMKII.loop4.water2.frame242.chk
%nprocshared=20
%mem=10GB
%nosave
#b3lyp/svp scf=(tight,noincore,xqc) Test 
#IOP(5/87=12) Density=Current Pop=(MK,readradii) iop(6/33=2) iop(6/42=6)

holoCaM-CaMKII.loop4.water2.frame242 

   -3  1 
C         94.41755       95.09655       47.41577
C         94.12977       93.64320       47.18932
O         93.17181       93.32467       46.50156
H         95.42559       95.33969       47.01838
H         93.66750       95.73310       46.89949
H         94.39074       95.31794       48.50310
N         94.94224       92.70007       47.73981
C         94.76514       91.26708       47.55416
C         94.57386       90.59478       48.90257
O         95.40712       90.76322       49.78224
C         95.98543       90.70414       46.81247
C         95.84393       89.23136       46.56658
O         96.67903       88.45948       47.00497
O         94.79646       88.75673       45.86536
H         95.74513       93.01639       48.30639
H         93.87996       91.06006       46.91593
H         96.91150       90.90357       47.39544
H         96.07600       91.21192       45.82763
N         93.49363       89.79098       49.11435
C         93.20208       89.12040       50.37495
C         93.33911       87.61856       50.17630
O         94.15608       87.01054       50.85461
C         91.78005       89.52911       50.87318
C         91.71201       91.06652       51.08288
C         91.41428       88.77288       52.16679
C         90.32202       91.58464       51.46184
H         92.84224       89.63589       48.33503
H         93.93618       89.42104       51.15696
H         91.03651       89.25222       50.09303
H         91.98995       91.57606       50.13533
H         92.43898       91.37419       51.86612
H         90.38147       89.00832       52.49219
H         91.43956       87.67559       52.00219
H         92.12091       89.02886       52.98430
H         90.35214       92.69232       51.53709
H         89.57890       91.30401       50.68678
H         89.99243       91.19416       52.44495
N         92.56675       86.94905       49.27178
C         92.63339       85.49851       49.08295
C         93.96142       84.98425       48.50892
O         94.08660       83.77526       48.36811
C         91.43172       84.99864       48.24641
C         91.35701       85.50898       46.83432
O         92.18425       86.28981       46.39241
O         90.34762       85.09345       46.04684
H         91.86114       87.48517       48.74581
H         92.50752       85.02564       50.08246
H         90.49361       85.29223       48.76656
H         91.45874       83.88801       48.21024
N         95.01186       85.80263       48.20752
C         96.31038       85.28911       47.79306
C         96.33362       84.72635       46.38953
O         97.15991       83.86480       46.12558
H         94.93528       86.81831       48.34573
H         96.66526       84.53112       48.52561
H         97.05774       86.10784       47.82092
N         95.54414       85.24813       45.40889
C         95.59515       84.82240       44.00899
C         96.15290       85.94081       43.10821
O         96.22979       85.74499       41.90369
C         94.19676       84.29295       43.58820
C         93.12763       85.34910       43.58371
O         93.50461       86.62794       43.68817
O         91.95994       85.06252       43.37687
H         94.89403       86.00616       45.66121
H         96.29445       83.96604       43.89186
H         93.91016       83.49479       44.30666
H         94.24618       83.84088       42.57345
N         96.64226       87.10346       43.64212
C         97.36402       88.12143       42.89146
C         96.53539       89.08474       42.06110
O         97.14994       89.97775       41.49455
H         96.64537       87.22362       44.66209
H         98.14543       87.63701       42.26684
H         97.89503       88.76353       43.62990
N         95.17564       89.01625       41.94430
C         94.39599       90.00045       41.18514
C         93.30702       90.68844       42.06022
O         93.57477       90.60865       43.42977
C         93.68730       89.31545       40.00304
C         94.65645       88.64534       39.02014
C         93.88884       87.98083       37.90388
N         93.96740       86.64362       37.70698
O         93.18372       88.65816       37.17026
H         94.67802       88.24587       42.39655
H         95.06749       90.79151       40.78357
H         93.08521       90.07025       39.45105
H         92.99851       88.54111       40.40201
H         95.26553       87.88807       39.55911
H         95.34419       89.40354       38.58761
H         94.55248       86.05086       38.31348
H         93.43526       86.19599       36.94576
N         93.10184       92.08373       41.65728
C         92.01200       92.76777       42.38181
C         90.66336       92.47873       41.73142
O         90.52839       92.71923       40.54013
C         92.28230       94.29741       42.38765
C         91.26206       95.02659       43.28145
C         93.70197       94.61553       42.88907
H         92.99111       92.17918       40.62089
H         92.00596       92.45352       43.44864
H         92.20091       94.68985       41.34947
H         91.33869       94.66753       44.33165
H         91.45071       96.12064       43.26901
H         90.22552       94.85725       42.92561
H         93.87341       95.71311       42.87975
H         93.85443       94.23572       43.92123
H         94.46553       94.15857       42.22424
N         89.60426       92.02982       42.46925
C         88.26922       91.83493       41.89813
C         87.29655       92.87489       42.44659
O         87.69486       93.71774       43.23308
C         87.76527       90.37754       42.07428
C         87.27963       89.98877       43.45281
N         88.11867       89.87746       44.50282
O         86.09618       89.72706       43.60944
H         89.73725       91.89087       43.47702
H         88.30918       91.99827       40.80035
H         88.53914       89.66284       41.72743
H         86.90023       90.24928       41.38840
H         89.12688       90.03815       44.40097
H         87.75236       89.58237       45.41990
N         85.98927       92.86524       42.05229
C         84.98261       93.82672       42.50454
C         84.90481       93.89330       44.01744
O         84.91250       94.99152       44.55753
C         83.60047       93.42862       41.93899
C         82.50266       94.34592       42.42709
C         82.49912       95.70958       42.08909
C         81.47946       93.83889       43.24595
C         81.48896       96.55111       42.56633
C         80.47384       94.68169       43.72393
C         80.47540       96.04209       43.38595
O         79.51207       96.86669       43.84362
H         85.68911       92.12723       41.40128
H         85.24313       94.83819       42.12117
H         83.38374       92.38485       42.25780
H         83.62453       93.44043       40.82789
H         83.27779       96.12166       41.45971
H         81.46486       92.79250       43.52506
H         81.49615       97.60091       42.30170
H         79.69696       94.27589       44.35954
H         78.79728       96.55330       44.41626
N         84.80294       92.76229       44.76195
C         84.71102       92.76342       46.21668
C         85.92712       93.44156       46.84216
O         85.74953       94.37769       47.60788
C         84.53531       91.31350       46.71599
C         84.26186       91.23085       48.22254
C         83.97459       89.81223       48.62559
O         84.90338       88.85398       48.44389
O         82.89496       89.52008       49.11535
H         84.78760       91.85964       44.26299
H         83.79318       93.32363       46.50846
H         85.42880       90.70442       46.45408
H         83.65428       90.88108       46.18956
H         83.38101       91.86485       48.46834
H         85.13756       91.60243       48.79528
N         87.19426       93.03206       46.54042
C         88.39945       93.64082       47.12090
C         88.58475       95.10862       46.73634
O         89.46271       95.74356       47.30541
C         89.65888       92.87094       46.66828
C         89.68168       91.42166       47.18276
C         90.77737       90.59441       46.56674
O         90.87399       89.29148       46.88720
O         91.54581       91.06625       45.74402
H         87.29468       92.24857       45.87924
H         88.31763       93.58461       48.22934
H         90.57884       93.37410       47.03788
H         89.67691       92.88838       45.55769
H         88.72977       90.91714       46.94753
H         89.79611       91.42702       48.28602
N         87.83010       95.70918       45.77503
C         87.96583       97.09712       45.38401
H         86.99579       97.61541       45.53885
H         88.74551       97.62997       45.96639
H         88.22924       97.14995       44.30666
H         87.13229       95.16195       45.27022
Ca        92.53933       88.62671       43.76043
O         89.62852       87.28648       44.32323
H         89.37349       87.48880       45.25836
H         88.77097       87.08454       43.87169
O         90.64583       87.95242       41.44968
H         89.77187       87.48885       41.46697
H         91.30661       87.23756       41.62938

Ca 1.0



