%chk=holoCaM.loop3.water2.frame344.chk
%nprocshared=20
%mem=10GB
%nosave
#b3lyp/svp scf=(tight,noincore,xqc) Test 
#IOP(5/87=12) Density=Current Pop=(MK,readradii) iop(6/33=2) iop(6/42=6)

holoCaM.loop3.water2.frame344 

   0  1 
C         -4.63081       31.57805       81.98265
C         -4.84183       32.43877       80.77647
O         -5.95217       32.90312       80.56258
H         -3.87117       32.05318       82.63936
H         -5.57565       31.46767       82.55638
H         -4.27287       30.57543       81.67201
N         -3.79996       32.69646       79.93886
C         -3.89036       33.59304       78.79767
C         -3.68995       32.79902       77.51594
O         -2.64978       32.17929       77.34293
C         -2.85828       34.72244       78.99801
C         -2.92167       35.82015       77.98219
O         -2.10797       36.88092       78.11128
O         -3.70777       35.77741       77.05562
H         -2.88758       32.25557       80.13593
H         -4.89415       34.06777       78.76404
H         -1.82973       34.30228       79.00967
H         -3.05402       35.19511       79.98503
N         -4.68844       32.75074       76.58663
C         -4.63449       31.94672       75.36709
C         -3.51273       32.38436       74.45131
O         -2.73528       31.54616       74.01711
C         -5.94733       32.06079       74.55435
C         -7.18571       31.51745       75.28375
C         -8.42157       31.62463       74.37750
C         -9.67867       31.09098       75.07289
N        -10.84366       31.20330       74.19499
H         -5.54309       33.29640       76.77189
H         -4.49811       30.87411       75.63204
H         -5.82586       31.47045       73.61779
H         -6.11911       33.12015       74.26596
H         -7.36940       32.09009       76.21696
H         -7.01593       30.45115       75.54844
H         -8.24652       31.04294       73.44591
H         -8.58909       32.68691       74.09883
H         -9.86402       31.67062       76.00418
H         -9.52619       30.02347       75.34621
H        -11.68507       30.83106       74.69125
H        -11.01285       32.20556       73.94735
H        -10.69173       30.64658       73.32238
N         -3.40911       33.68872       74.08046
C         -2.49811       34.16982       73.04700
C         -1.30786       34.91948       73.60324
O         -0.46038       35.31719       72.81510
C         -3.30508       34.98002       72.00517
C         -4.06565       36.17768       72.53895
O         -4.87747       36.72904       71.81454
O         -3.88965       36.64291       73.79363
H         -4.03834       34.36269       74.53708
H         -2.05104       33.30484       72.50889
H         -4.06197       34.27869       71.59071
H         -2.65332       35.30478       71.16549
N         -1.13029       35.09888       74.94174
C          0.05679       35.71561       75.49837
C          0.24290       37.11375       74.98164
O          1.28736       37.39902       74.41262
H         -1.83696       34.75810       75.60587
H          0.94643       35.09603       75.24942
H         -0.03316       35.75100       76.60578
N         -0.73212       38.04471       75.16424
C         -0.58815       39.43760       74.75939
C         -0.52589       40.35101       75.97815
O         -0.37133       41.55123       75.80120
C         -1.71000       39.82834       73.76875
C         -3.08267       39.97986       74.39025
N         -3.76663       41.14082       74.26016
O         -3.59101       39.05291       74.99884
H         -1.59568       37.75405       75.64523
H          0.37141       39.56890       74.21309
H         -1.75296       39.06246       72.96298
H         -1.43280       40.79186       73.28915
H         -3.36908       41.93720       73.74106
H         -4.70550       41.24424       74.67213
N         -0.63286       39.84784       77.24702
C         -0.57707       40.64279       78.45634
C         -1.90663       40.66336       79.18582
O         -1.95955       41.27858       80.24092
H         -0.76669       38.84235       77.39782
H         -0.30974       41.69824       78.23206
H          0.21591       40.22501       79.11276
N         -3.04280       40.11778       78.64719
C         -4.37511       40.41804       79.16400
C         -5.31622       39.22780       79.14115
O         -5.43771       38.57452       78.11384
C         -4.98290       41.50899       78.26216
C         -4.19681       42.79188       78.36591
C         -3.47343       43.28124       77.26755
C         -4.17427       43.50539       79.57622
C         -2.73573       44.46251       77.37882
C         -3.44075       44.68806       79.68473
C         -2.71759       45.17078       78.58505
O         -2.00444       46.31070       78.67621
H         -2.99591       39.66211       77.72443
H         -4.33209       40.82128       80.19853
H         -6.03472       41.72129       78.55403
H         -4.99022       41.13564       77.21395
H         -3.46893       42.74578       76.33017
H         -4.72664       43.14645       80.43589
H         -2.17691       44.82620       76.52606
H         -3.43531       45.22613       80.62403
H         -1.97077       46.83064       79.49182
N         -6.13809       39.00586       80.21010
C         -7.26211       38.07486       80.19192
C         -8.56395       38.85755       80.29037
O         -8.76744       39.57577       81.25870
C         -7.17882       37.00255       81.32419
C         -7.02686       37.59636       82.75520
C         -6.04696       36.01632       81.01278
C         -7.21615       36.56209       83.86647
H         -6.03261       39.60404       81.04316
H         -7.29545       37.52027       79.22897
H         -8.13299       36.42790       81.28405
H         -7.80326       38.35503       82.95087
H         -6.03489       38.08450       82.86492
H         -6.03594       35.18309       81.74094
H         -6.21066       35.57112       80.00942
H         -5.06072       36.52408       81.02717
H         -7.13671       37.06746       84.85253
H         -8.22737       36.10632       83.79002
H         -6.44835       35.76602       83.83223
N         -9.51671       38.75136       79.32051
C        -10.85307       39.31221       79.50278
C        -11.66184       38.39483       80.40721
O        -11.16802       37.33677       80.76862
C        -11.55015       39.50357       78.14543
O        -11.72670       38.27478       77.48903
H         -9.33520       38.15011       78.50201
H        -10.77104       40.31889       79.96930
H        -10.94918       40.21079       77.52560
H        -12.54575       39.97539       78.28293
H        -11.12539       38.26942       76.69948
N        -12.92195       38.72073       80.81218
C        -13.72877       37.80003       81.61060
C        -14.01949       36.52447       80.83530
O        -14.16284       35.47650       81.44969
C        -15.04238       38.44939       82.04812
H        -13.31555       39.63373       80.53780
H        -13.16353       37.54559       82.53600
H        -15.62190       37.74594       82.68486
H        -14.82849       39.36127       82.64554
H        -15.65616       38.72908       81.16602
N        -14.10418       36.54336       79.47321
C        -14.31380       35.35103       78.66394
C        -13.17237       34.37456       78.85164
O        -13.42511       33.22228       79.17462
C        -14.41905       35.72789       77.17934
H        -14.00509       37.44653       78.98548
H        -15.27627       34.87085       78.95076
H        -13.48894       36.21831       76.82116
H        -14.59996       34.81940       76.56554
H        -15.26808       36.42733       77.02596
N        -11.88227       34.77597       78.66041
C        -10.74167       33.87325       78.77081
C        -10.69664       33.23737       80.14850
O        -10.75244       32.01767       80.22832
C         -9.40921       34.57859       78.38860
C         -9.47161       35.06722       76.92371
C         -8.14199       35.41058       76.31044
O         -7.75535       34.75216       75.36155
O         -7.36211       36.41951       76.73641
H        -11.71524       35.76245       78.41777
H        -10.87791       33.04976       78.03289
H         -8.60154       33.81805       78.47305
H         -9.16742       35.42270       79.07193
H        -10.15419       35.93380       76.82177
H         -9.88611       34.23653       76.31116
N        -10.66072       33.99818       81.27610
C        -10.71826       33.44302       82.61458
H        -11.63036       33.81986       83.12554
H        -10.76269       32.33305       82.61459
H         -9.82531       33.76149       83.18942
H        -10.62991       35.02037       81.18934
Ca        -5.55658       36.62557       75.35485
O         -6.90504       39.72919       75.67247
H         -7.29194       39.88105       74.77399
H         -7.36994       40.37928       76.25716
O         -8.02644       37.23890       73.37177
H         -7.91411       36.26025       73.27690
H         -7.20886       37.61951       72.96411

Ca 1.0



