%chk=holoCaM.loop2.water2.frame253.chk
%nprocshared=20
%mem=10GB
%nosave
#b3lyp/svp scf=(tight,noincore,xqc) Test 
#IOP(5/87=12) Density=Current Pop=(MK,readradii) iop(6/33=2) iop(6/42=6)

holoCaM.loop2.water2.frame253 

   -2  1 
C         60.55367       84.72318       54.75745
C         60.08112       84.77563       53.34000
O         58.91097       84.50643       53.10614
H         61.62263       85.00873       54.83781
H         59.94789       85.42435       55.36919
H         60.42477       83.69190       55.14634
N         60.93101       85.12331       52.33132
C         60.48222       85.21185       50.95194
C         59.99253       83.84951       50.48070
O         60.77944       82.91859       50.38104
C         61.59731       85.77003       50.04983
C         61.14507       86.05081       48.64477
O         61.94011       86.51924       47.85659
O         59.87773       85.83368       48.24469
H         61.90894       85.36051       52.55955
H         59.65588       85.94814       50.93514
H         62.45667       85.06473       50.02974
H         61.95093       86.73540       50.47672
N         58.66781       83.66721       50.23133
C         58.06639       82.39882       49.84110
C         58.53884       81.96422       48.47104
O         59.00511       80.84427       48.31917
C         56.53740       82.54090       49.82258
H         58.04353       84.47149       50.37259
H         58.31079       81.62240       50.59970
H         56.21300       83.30651       49.08555
H         56.06382       81.57075       49.56279
H         56.17643       82.84841       50.82781
N         58.44142       82.82573       47.42340
C         58.83579       82.50548       46.05564
C         60.29643       82.81681       45.77111
O         60.72402       82.55607       44.65397
C         57.84501       83.12847       45.03408
C         57.38709       84.53201       45.35654
O         56.19956       84.72875       45.56222
O         58.23932       85.56204       45.50250
H         58.12484       83.78341       47.63178
H         58.78354       81.40494       45.89331
H         56.92858       82.49718       45.04502
H         58.26074       83.07206       44.00540
N         61.15562       83.26934       46.73198
C         62.58620       83.39282       46.49290
C         62.96326       84.44054       45.46730
O         64.12968       84.47991       45.10074
H         60.81733       83.44437       47.68591
H         62.95885       82.40290       46.14658
H         63.11146       83.63493       47.44167
N         62.05522       85.31811       44.94766
C         62.39265       86.26229       43.88481
C         63.36582       87.37172       44.31425
O         63.69451       88.20247       43.48027
C         61.09817       86.79579       43.22016
C         60.33317       87.84153       43.99224
N         59.98035       89.00039       43.38564
O         59.99679       87.63645       45.14744
H         61.07662       85.26718       45.26244
H         62.88353       85.67262       43.07993
H         60.42653       85.92729       43.03359
H         61.35700       87.21378       42.22446
H         60.22750       89.18063       42.40132
H         59.42903       89.71074       43.88434
N         63.86766       87.45212       45.58466
C         64.83751       88.43929       46.03286
C         64.22483       89.51187       46.91382
O         64.97920       90.32068       47.43636
H         63.58950       86.76847       46.28966
H         65.33626       88.93878       45.17632
H         65.62787       87.90178       46.60291
N         62.87457       89.63857       47.06578
C         62.23779       90.72270       47.81780
C         61.20576       90.19858       48.80993
O         60.94209       89.00541       48.84268
C         61.59692       91.73580       46.81920
C         62.67302       92.63531       46.21162
O         60.91951       91.09953       45.76368
H         62.25884       88.98457       46.56067
H         62.98292       91.26743       48.43795
H         60.89489       92.41607       47.34704
H         60.50043       90.27444       46.11120
H         63.42460       92.04120       45.65226
H         62.20403       93.36552       45.51801
H         63.18343       93.20667       47.01709
N         60.59669       91.06335       49.67781
C         59.61612       90.66403       50.68509
C         58.30428       91.38864       50.40971
O         58.28067       92.61255       50.43537
C         60.12082       91.01289       52.12262
C         61.51179       90.39436       52.41117
C         59.09290       90.54888       53.17642
C         62.09175       90.82527       53.76502
H         60.85281       92.06220       49.63677
H         59.44931       89.56427       50.64238
H         60.22459       92.11925       52.19215
H         62.22782       90.74004       51.63591
H         61.45853       89.28470       52.36779
H         59.38194       90.85667       54.19884
H         58.11332       91.02039       52.99822
H         58.97080       89.44464       53.14866
H         63.11453       90.41215       53.88260
H         62.14907       91.93376       53.82415
H         61.48732       90.44698       54.61375
N         57.16451       90.68918       50.15531
C         55.85513       91.31723       49.96666
C         55.22641       91.60282       51.32153
O         55.81335       91.23451       52.32623
C         54.93062       90.34657       49.20448
C         55.55111       89.87556       47.92433
O         55.95537       88.59191       47.85253
O         55.72166       90.64317       46.99362
H         57.22229       89.66266       50.12866
H         55.97009       92.24961       49.37038
H         53.94342       90.80548       48.98763
H         54.77360       89.45354       49.84973
N         54.01885       92.22240       51.44715
C         53.36991       92.35770       52.74832
C         52.97521       90.98291       53.30204
O         53.33754       90.71991       54.43923
C         52.18010       93.34450       52.72884
C         51.57244       93.49092       54.11002
C         52.33678       93.98030       55.18800
C         50.23449       93.12363       54.33569
C         51.77377       94.08915       56.46302
C         49.67571       93.23664       55.61261
C         50.44479       93.71678       56.67547
H         53.55167       92.59200       50.60471
H         54.10392       92.82225       53.44506
H         51.40334       93.02598       52.01448
H         52.53758       94.34046       52.38854
H         53.36882       94.27477       55.04827
H         49.62486       92.74263       53.52616
H         52.36918       94.46060       57.28750
H         48.64612       92.94820       55.77887
H         50.01121       93.80012       57.66371
N         52.27675       90.03379       52.58367
C         51.88845       88.72419       53.11793
C         53.04175       87.80941       53.52401
O         52.78090       86.71250       53.99922
C         51.11468       88.07037       51.96381
C         50.54846       89.27178       51.23833
C         51.75149       90.20104       51.24579
H         51.21523       88.91143       53.98366
H         51.83669       87.59787       51.25562
H         50.37852       87.29957       52.27638
H         50.14620       89.05516       50.22596
H         49.74643       89.72320       51.86549
H         52.50572       89.82581       50.52536
H         51.44653       91.22027       50.97006
N         54.33666       88.19126       53.35970
C         55.50245       87.39793       53.70819
C         56.13598       87.98537       54.95812
O         56.40880       87.23216       55.88187
C         56.46803       87.37644       52.50394
C         55.81312       86.67388       51.29749
C         56.66613       86.67069       50.06206
O         57.86103       87.28837       50.03206
O         56.26509       86.09816       49.06175
H         54.53701       89.10680       52.94824
H         55.22841       86.34435       53.94465
H         57.39653       86.82913       52.77706
H         56.74441       88.41929       52.23416
H         54.85708       87.17499       51.03523
H         55.59727       85.61980       51.57694
N         56.31289       89.33115       55.09618
C         56.80446       89.96059       56.30416
H         57.68020       90.59482       56.06037
H         56.00448       90.60805       56.72529
H         57.09864       89.22328       57.07889
H         56.03593       89.96045       54.33729
Ca        57.19804       87.39780       46.37295
O         56.48503       87.88771       43.55741
H         57.32185       87.36020       43.51175
H         55.84998       87.30350       44.04377
O         58.15466       90.57073       46.12067
H         58.15658       91.14630       45.31588
H         58.34227       91.19080       46.87072

Ca 1.0



