%chk=holoCaM-CaMKII.loop3.water2.frame149.chk
%nprocshared=20
%mem=10GB
%nosave
#b3lyp/svp scf=(tight,noincore,xqc) Test 
#IOP(5/87=12) Density=Current Pop=(MK,readradii) iop(6/33=2) iop(6/42=6)

holoCaM-CaMKII.loop3.water2.frame149 

   0  1 
C        101.63501      100.38901       69.01926
C        101.37320       99.57091       70.24165
O        100.50399       99.95134       71.01374
H        101.94867      101.40925       69.32386
H        102.42915       99.93642       68.39134
H        100.69962      100.45618       68.42437
N        102.08474       98.43233       70.49074
C        101.83664       97.60080       71.65456
C        103.05368       97.61810       72.55844
O        103.83041       96.67209       72.56673
C        101.41407       96.17369       71.22720
C        100.73451       95.48139       72.37702
O        100.24681       94.37851       72.23751
O        100.58760       96.15783       73.52918
H        102.82450       98.14079       69.83329
H        100.98832       98.03051       72.22733
H        102.27713       95.59160       70.83376
H        100.65879       96.24312       70.41946
N        103.30688       98.72586       73.30952
C        104.55148       98.90338       74.04985
C        104.72309       97.95393       75.23003
O        105.81435       97.95967       75.78474
C        104.74557      100.35531       74.54873
C        104.47162      101.40953       73.46518
C        105.03060      102.78125       73.85211
C        104.51237      103.90945       72.94184
N        104.67687      103.61960       71.51581
H        102.62314       99.49226       73.26429
H        105.37415       98.71173       73.32255
H        105.80310      100.43968       74.88732
H        104.08485      100.57322       75.41686
H        103.37492      101.49548       73.32024
H        104.94604      101.10281       72.50756
H        106.14088      102.72474       73.80436
H        104.74088      103.04056       74.89377
H        105.05905      104.84238       73.20297
H        103.43203      104.07712       73.14853
H        104.41015      104.46776       70.96610
H        105.66655      103.36322       71.30037
H        104.03400      102.84472       71.23074
N        103.73516       97.11186       75.67423
C        103.95970       96.16542       76.77084
C        104.09636       94.73983       76.23455
O        104.63894       93.90833       76.94847
C        102.91998       96.34104       77.91154
C        101.55655       95.89421       77.49410
O        100.55286       96.76591       77.31918
O        101.37023       94.72466       77.21541
H        102.81799       97.10956       75.20586
H        104.94486       96.38757       77.23295
H        102.89212       97.41466       78.19954
H        103.21198       95.74879       78.80458
N        103.67958       94.39205       74.97536
C        104.03045       93.13283       74.33323
C        102.95248       92.07087       74.37575
O        103.20403       90.99100       73.85959
H        103.16243       95.06604       74.39781
H        104.93499       92.70283       74.81434
H        104.31170       93.34670       73.27881
N        101.76717       92.25442       75.02320
C        100.83625       91.15351       75.27328
C         99.99517       90.76158       74.05684
O         99.19627       89.84417       74.17968
C         99.99485       91.44645       76.54093
C         98.86633       92.42541       76.35842
N         97.62443       92.12611       76.80384
O         99.07128       93.50270       75.83230
H        101.60079       93.15480       75.48092
H        101.45045       90.27430       75.57086
H        100.68366       91.83399       77.32461
H         99.57397       90.49464       76.92892
H         97.43048       91.22915       77.27280
H         96.85011       92.79636       76.69011
N        100.11453       91.40501       72.85655
C         99.38135       91.02790       71.65478
C         98.15093       91.88198       71.38605
O         97.50382       91.63579       70.37755
H        100.80337       92.15744       72.75601
H         99.06289       89.96435       71.71266
H        100.07460       91.09857       70.78840
N         97.72498       92.85020       72.25012
C         96.46738       93.58572       72.09609
C         96.67048       95.08521       72.20029
O         97.34131       95.52440       73.12521
C         95.52899       93.17124       73.23897
C         95.19832       91.70306       73.17857
C         94.40330       91.18345       72.14385
C         95.68660       90.83817       74.16484
C         94.09954       89.81787       72.11024
C         95.39325       89.47763       74.12822
C         94.59385       88.96109       73.10143
O         94.29652       87.64757       73.05985
H         98.26032       93.01588       73.11518
H         95.95770       93.34751       71.13623
H         94.58023       93.75146       73.20316
H         96.03277       93.41299       74.20163
H         94.01150       91.83490       71.37231
H         96.30415       91.21423       74.95658
H         93.47898       89.42608       71.31484
H         95.78865       88.82990       74.90021
H         94.62049       87.02954       73.73100
N         96.03173       95.93851       71.34401
C         96.05287       97.39427       71.50191
C         94.64402       97.93583       71.72228
O         93.69584       97.38489       71.17671
C         96.77121       98.09758       70.31591
C         95.98672       97.97679       68.98398
C         98.20249       97.54708       70.19628
C         96.65016       98.71339       67.81841
H         95.46795       95.54017       70.57735
H         96.63608       97.66156       72.40715
H         96.84609       99.18026       70.56570
H         94.98348       98.43387       69.12033
H         95.85202       96.91194       68.70134
H         98.72842       97.65032       71.16777
H         98.18926       96.47354       69.90991
H         98.79466       98.10783       69.44684
H         96.80678       99.78327       68.07330
H         97.62150       98.24968       67.55193
H         95.99560       98.65238       66.92395
N         94.44269       99.03773       72.50032
C         93.13668       99.64593       72.74736
C         93.10775      101.07324       72.21577
O         94.08958      101.51374       71.63268
C         92.84653       99.61487       74.26092
O         93.78567      100.39150       74.95884
H         95.26143       99.47857       72.94460
H         92.32863       99.07606       72.23852
H         92.88980       98.56852       74.63139
H         91.81279       99.98702       74.44762
H         93.30391      100.83087       75.70785
N         92.01658      101.86921       72.40789
C         91.96201      103.27567       72.01358
C         93.09321      104.05092       72.65819
O         93.79978      104.76496       71.96241
C         90.62406      103.89770       72.43288
H         91.19938      101.47072       72.89583
H         92.03908      103.36176       70.90637
H         90.58530      104.96443       72.12185
H         89.78404      103.36164       71.94323
H         90.48831      103.84480       73.53477
N         93.34054      103.91583       73.99086
C         94.43179      104.59109       74.68033
C         95.77641      104.28081       74.04753
O         96.49168      105.21670       73.71537
C         94.45372      104.17998       76.15887
H         92.73399      103.28228       74.53427
H         94.26148      105.69051       74.64319
H         95.26952      104.71166       76.69416
H         93.48922      104.44626       76.64151
H         94.61231      103.08527       76.26467
N         96.19822      102.99547       73.86212
C         97.53538      102.68491       73.35377
C         97.76974      103.21230       71.94512
O         98.92415      103.35124       71.56521
C         97.84175      101.17172       73.37092
C         97.69647      100.55183       74.77229
C         98.10002       99.10694       74.82992
O         97.99225       98.44953       75.99883
O         98.53089       98.52389       73.84741
H         95.56078      102.23310       74.12987
H         98.26035      103.18529       74.03446
H         98.89063      101.02747       73.02978
H         97.17428      100.64603       72.65591
H         96.64227      100.61020       75.10889
H         98.33215      101.11063       75.49014
N         96.73345      103.48922       71.10414
C         96.90276      103.99754       69.75852
H         97.96727      104.18200       69.50446
H         96.48679      103.26708       69.03319
H         96.34889      104.95465       69.66041
H         95.77113      103.31738       71.41393
Ca        99.50512       96.10343       75.46891
O         95.86829       95.97527       75.40483
H         95.70541       96.83550       75.86511
H         94.96846       95.65195       75.14911
O         97.73300       95.60318       77.91718
H         97.01798       94.94508       77.73172
H         97.89365       95.52630       78.89057

Ca 1.0



