%chk=holoCaM-CaMKII.loop1.water2.frame140.chk
%nprocshared=20
%mem=10GB
%nosave
#b3lyp/svp scf=(tight,noincore,xqc) Test 
#IOP(5/87=12) Density=Current Pop=(MK,readradii) iop(6/33=2) iop(6/42=6)

holoCaM-CaMKII.loop1.water2.frame140 

   0  1 
C          7.56841       26.65063       69.17941
C          6.11333       27.01190       69.16144
O          5.54159       27.20322       70.22405
H          8.14781       27.46029       69.66940
H          7.70411       25.70652       69.74802
H          7.96246       26.50175       68.15196
N          5.44240       27.12660       67.98225
C          4.02304       27.44860       67.91079
C          3.20766       26.34319       68.57091
O          3.24662       25.21304       68.10487
C          3.61595       27.64474       66.43491
C          2.16224       27.96945       66.26654
O          1.46197       27.25312       65.57274
O          1.62782       29.05361       66.85741
H          5.96670       26.98537       67.10426
H          3.85435       28.41670       68.43529
H          3.85259       26.72326       65.85722
H          4.20981       28.48064       66.00569
N          2.45248       26.61322       69.67463
C          1.63883       25.62664       70.37793
C          0.15215       25.93716       70.31966
O         -0.61181       25.12092       70.81767
C          2.11236       25.50573       71.84630
C          3.48348       24.81983       72.00553
C          3.43347       23.35784       71.52628
C          4.72506       22.59125       71.80872
N          4.61027       21.21811       71.31301
H          2.46248       27.56913       70.04685
H          1.70309       24.64335       69.87849
H          1.38649       24.90005       72.43145
H          2.13936       26.51978       72.30534
H          3.73757       24.82846       73.08839
H          4.27240       25.37776       71.46224
H          3.26191       23.32036       70.43302
H          2.59790       22.83695       72.04384
H          4.91499       22.57432       72.90474
H          5.57928       23.09549       71.30543
H          5.48950       20.69590       71.52628
H          3.80649       20.73302       71.77558
H          4.46154       21.22235       70.27704
N         -0.34874       27.03515       69.68600
C         -1.77930       27.23684       69.46656
C         -2.11334       27.22813       67.96904
O         -3.25583       27.48951       67.61973
C         -2.30168       28.45221       70.26567
C         -1.68838       29.78204       69.96115
O         -2.09391       30.86257       70.65472
O         -0.82547       29.89997       69.11233
H          0.29744       27.72722       69.28349
H         -2.36585       26.38919       69.88327
H         -2.12122       28.24791       71.34460
H         -3.40033       28.53439       70.11959
N         -1.20511       26.77720       67.04613
C         -1.53258       26.47434       65.65750
C         -1.70764       27.65596       64.72520
O         -1.99649       27.40970       63.56245
H         -0.27441       26.47276       67.36177
H         -2.44863       25.84445       65.63763
H         -0.71186       25.85953       65.22972
N         -1.57188       28.94960       65.12727
C         -1.85221       30.07110       64.22718
C         -0.87197       30.22950       63.05783
O         -1.21335       30.98144       62.15379
C         -1.97963       31.38879       65.02875
C         -0.73026       31.69952       65.80049
O         -0.73461       31.70935       67.14282
O          0.31040       31.89731       65.21533
H         -1.35440       29.13917       66.11543
H         -2.85374       29.88269       63.77838
H         -2.81743       31.27433       65.74910
H         -2.22410       32.23602       64.35123
N          0.35936       29.63096       63.00610
C          1.28491       29.83820       61.88868
C          2.43157       30.78538       62.21802
O          3.17426       31.13071       61.31403
H          0.67709       29.05791       63.80091
H          0.75381       30.30772       61.03342
H          1.66915       28.86091       61.52432
N          2.62263       31.25703       63.48264
C          3.63120       32.25229       63.86113
C          4.01365       32.08691       65.33603
O          3.44016       31.27094       66.03712
C          3.14762       33.70873       63.57290
C          3.07240       34.08190       62.08481
O          1.91828       33.96522       64.20061
H          2.05877       30.83768       64.22052
H          4.57232       32.04401       63.30709
H          3.88933       34.41814       63.99654
H          1.20202       33.56741       63.63842
H          2.77034       35.14804       61.99013
H          4.06768       33.95851       61.60932
H          2.31994       33.47473       61.54445
N          5.07577       32.78546       65.83543
C          5.65427       32.52814       67.15230
C          5.68759       33.82972       67.94700
O          6.16985       34.82831       67.43533
C          7.07356       31.91383       66.95618
C          6.99971       30.66287       66.02806
C          7.68302       31.53300       68.32119
C          8.36531       30.12315       65.60369
H          5.56928       33.44683       65.21982
H          5.05835       31.77309       67.71133
H          7.71650       32.67528       66.46196
H          6.49207       30.92666       65.07714
H          6.40915       29.85614       66.51594
H          8.71031       31.13450       68.20831
H          7.75042       32.41710       68.98650
H          7.05756       30.76067       68.82164
H          8.93436       30.91525       65.07088
H          8.95420       29.75775       66.46642
H          8.21946       29.27148       64.90479
N          5.21483       33.87037       69.22789
C          5.14856       35.08557       70.04002
C          6.26618       35.12124       71.07580
O          7.05679       34.19328       71.15617
C          3.76528       35.17675       70.74576
C          2.60032       35.13897       69.76110
O          3.62958       34.11767       71.65759
H          4.90047       32.99499       69.65394
H          5.28477       35.98025       69.39426
H          3.71063       36.14538       71.29212
H          2.97115       34.40083       72.34508
H          2.68141       35.97275       69.03463
H          2.58357       34.17108       69.21983
H          1.64364       35.24298       70.31594
N          6.37957       36.20050       71.90535
C          7.39325       36.33950       72.95068
C          7.31016       35.20344       73.95068
O          8.32681       34.57575       74.20929
C          7.25311       37.69783       73.69048
C          7.59939       38.87747       72.77454
O          5.94973       37.85002       74.19466
H          5.70056       36.96518       71.78778
H          8.40788       36.31595       72.49231
H          7.98517       37.70130       74.53259
H          5.98283       38.56785       74.87925
H          7.52462       39.82776       73.34441
H          8.64260       38.77613       72.40641
H          6.91372       38.93392       71.90470
N          6.13743       34.89199       74.56521
C          6.00994       33.80412       75.52869
C          6.31800       32.46323       74.87653
O          7.10381       31.71023       75.43503
C          4.61265       33.81228       76.19183
C          4.41943       35.10160       77.02194
C          3.10166       35.10888       77.80813
C          2.88461       36.41770       78.59708
N          3.90768       36.64293       79.62248
H          5.30043       35.44469       74.32739
H          6.73679       33.95564       76.35910
H          4.55025       32.94518       76.88650
H          3.80938       33.70974       75.42908
H          4.44111       35.98975       76.35604
H          5.26203       35.17597       77.74064
H          3.07853       34.24756       78.51094
H          2.25834       34.99914       77.09254
H          1.89085       36.36043       79.09378
H          2.86468       37.28216       77.89680
H          3.95300       35.82808       80.27622
H          4.84309       36.80800       79.18819
H          3.65678       37.49842       80.16929
N          5.76777       32.11139       73.67666
C          6.03497       30.82324       73.02298
C          7.51155       30.62872       72.67411
O          7.88669       29.51242       72.34193
C          5.18629       30.65500       71.73671
C          3.67668       30.72061       72.03078
C          2.81054       30.64356       70.80388
O          1.95188       29.78292       70.72615
O          2.88229       31.58451       69.84249
H          5.13862       32.78866       73.22691
H          5.74878       30.02241       73.74032
H          5.41031       29.67513       71.26188
H          5.48084       31.44786       71.02601
H          3.41622       31.67215       72.52757
H          3.41539       29.89218       72.72413
N          8.40631       31.65472       72.71712
C          9.81664       31.48025       72.44920
H         10.33805       32.45928       72.53042
H         10.25829       30.78778       73.19714
H          9.96910       31.07898       71.42608
H          8.08573       32.59970       72.93856
Ca         1.23742       31.63057       68.28072
O         -0.16431       33.01461       70.37210
H         -0.26913       33.74414       71.03119
H          0.30140       32.29616       70.86962
O          1.28568       34.68731       67.00392
H          0.43292       34.77799       67.49771
H          1.27415       33.75960       66.66510

Ca 1.0



