%chk=holoCaM-CaMKII.loop2.water2.frame349.chk
%nprocshared=20
%mem=10GB
%nosave
#b3lyp/svp scf=(tight,noincore,xqc) Test 
#IOP(5/87=12) Density=Current Pop=(MK,readradii) iop(6/33=2) iop(6/42=6)

holoCaM-CaMKII.loop2.water2.frame349 

   -2  1 
C         40.69335       44.80013       37.63526
C         42.10170       44.73965       38.15886
O         42.99862       45.32659       37.57482
H         40.03794       45.25360       38.41254
H         40.62553       45.42044       36.71794
H         40.32302       43.77660       37.41798
N         42.34094       44.07160       39.31441
C         43.61792       44.05879       40.02073
C         44.70864       43.25372       39.31675
O         44.49036       42.08612       39.02548
C         43.36803       43.47862       41.42331
C         44.59475       43.49966       42.26471
O         45.17264       44.55361       42.47448
O         45.05720       42.35129       42.79332
H         41.52715       43.62390       39.76711
H         43.95413       45.10998       40.16320
H         42.99129       42.43539       41.34591
H         42.59635       44.09320       41.93396
N         45.94548       43.80435       39.10523
C         47.08649       43.07542       38.55194
C         48.28679       42.99067       39.51340
O         49.23221       42.29644       39.16543
C         47.52378       43.75098       37.24490
H         46.09061       44.78490       39.36649
H         46.78720       42.03152       38.31658
H         48.36629       43.19917       36.77491
H         46.67917       43.77373       36.52378
H         47.85033       44.79673       37.43827
N         48.36091       43.68645       40.69307
C         49.54960       43.68159       41.56668
C         49.24018       43.51185       43.06731
O         50.18337       43.45417       43.84449
C         50.37194       44.96286       41.31685
C         49.51695       46.18570       41.34611
O         48.78982       46.48556       42.42782
O         49.42387       46.88685       40.35073
H         47.60030       44.33748       40.92783
H         50.22047       42.83477       41.30308
H         50.82812       44.89880       40.30474
H         51.19970       45.05052       42.05317
N         47.97207       43.39015       43.54938
C         47.63673       43.12474       44.94821
C         47.90567       44.24637       45.94643
O         47.68155       44.01204       47.12569
H         47.20678       43.39388       42.87968
H         48.18672       42.21390       45.27083
H         46.55097       42.89855       45.01731
N         48.38619       45.46900       45.58376
C         48.75280       46.50729       46.55316
C         47.59046       47.07853       47.37769
O         47.87605       47.79480       48.32721
C         49.53154       47.65047       45.85177
C         48.72281       48.42135       44.83852
N         49.28905       49.42085       44.12622
O         47.55305       48.14232       44.64851
H         48.57749       45.63501       44.59367
H         49.45988       46.03451       47.26995
H         50.40853       47.20891       45.33058
H         49.90736       48.36720       46.61252
H         50.27989       49.66725       44.25655
H         48.73307       49.94637       43.43629
N         46.27740       46.84975       47.07681
C         45.16981       47.33469       47.89852
C         44.32664       48.42202       47.24956
O         43.32745       48.79082       47.85120
H         46.04358       46.29701       46.24402
H         45.53042       47.74710       48.86575
H         44.52100       46.46569       48.14086
N         44.68655       49.04104       46.08676
C         43.93269       50.14575       45.49125
C         43.73704       49.96669       43.99121
O         44.35722       49.10608       43.38230
C         44.67624       51.48807       45.74292
C         44.63733       51.89096       47.21784
O         46.01844       51.40234       45.33160
H         45.57008       48.77867       45.64616
H         42.91803       50.20909       45.94198
H         44.17020       52.32085       45.20288
H         46.02899       51.46701       44.34181
H         45.14517       52.87063       47.35069
H         43.58298       52.00244       47.55189
H         45.14548       51.13951       47.85619
N         42.91237       50.82620       43.32512
C         42.81675       50.90254       41.87402
C         43.85743       51.89131       41.39309
O         43.95297       52.98702       41.93010
C         41.38559       51.31689       41.41067
C         40.36674       50.21991       41.81130
C         41.35820       51.55901       39.88280
C         38.92071       50.54142       41.42289
H         42.43805       51.56367       43.86878
H         43.02551       49.91075       41.41403
H         41.10839       52.27470       41.90524
H         40.39593       50.08767       42.91367
H         40.64830       49.25384       41.33736
H         42.05392       52.37437       39.60553
H         41.63931       50.63837       39.32802
H         40.36537       51.90652       39.53818
H         38.60172       51.50333       41.87577
H         38.79565       50.59071       40.32184
H         38.25372       49.73269       41.78712
N         44.62671       51.57586       40.31899
C         45.63899       52.44983       39.74509
C         45.12473       52.98486       38.42840
O         44.02303       52.63497       38.03845
C         46.92245       51.63793       39.48231
C         47.38667       50.86012       40.66867
O         46.53736       49.98620       41.23373
O         48.54997       50.91373       41.03339
H         44.44949       50.68127       39.84171
H         45.85453       53.30319       40.42408
H         47.74156       52.28701       39.10767
H         46.69634       50.87863       38.69886
N         45.85632       53.84151       37.67467
C         45.40079       54.30168       36.37094
C         45.27074       53.15545       35.35420
O         44.19589       53.03976       34.78607
C         46.31768       55.40488       35.82118
C         45.77288       55.94224       34.51848
C         44.52411       56.59254       34.47761
C         46.49885       55.77710       33.32905
C         44.01402       57.06418       33.26552
C         45.98368       56.24929       32.11881
C         44.74288       56.89185       32.08661
H         46.75976       54.17943       38.04414
H         44.39877       54.76663       36.51339
H         47.34020       54.99872       35.68576
H         46.38337       56.23920       36.55292
H         43.94254       56.73312       35.38045
H         47.45691       55.27282       33.33701
H         43.05220       57.56064       33.24041
H         46.54589       56.11296       31.20492
H         44.34549       57.25498       31.14814
N         46.28504       52.27418       35.05226
C         46.16603       51.21359       34.05031
C         45.00548       50.27862       34.34349
O         44.28098       49.92646       33.42211
C         47.54217       50.52178       34.08586
C         48.03227       50.78108       35.49295
C         47.58060       52.22086       35.70578
H         46.01899       51.61541       33.02349
H         47.56214       49.46277       33.74862
H         48.22945       51.10144       33.42856
H         47.48073       50.11642       36.18798
H         49.11681       50.61054       35.66274
H         47.56772       52.40203       36.78959
H         48.26955       52.92546       35.19187
N         44.74141       49.87502       35.60842
C         43.64004       48.99259       35.97745
C         42.30726       49.64728       35.64670
O         41.49385       49.03985       34.96542
C         43.75335       48.65553       37.47797
C         45.07658       47.89876       37.75075
C         45.35980       47.66930       39.20008
O         46.40894       47.13778       39.51839
O         44.51010       48.08028       40.15628
H         45.33889       50.24883       36.35675
H         43.71786       48.02982       35.42346
H         42.89660       48.02589       37.80251
H         43.72293       49.60207       38.05240
H         45.94520       48.46934       37.37075
H         45.06144       46.92318       37.21970
N         42.03938       50.91209       36.06595
C         40.80986       51.60933       35.76161
H         39.95007       51.08514       36.22675
H         40.85696       52.64430       36.16710
H         40.66730       51.67272       34.66198
H         42.75266       51.41377       36.59595
Ca        47.32315       48.08101       41.99594
O         42.45528       47.03561       41.73191
H         42.25311       46.90639       40.77150
H         41.80865       46.45375       42.20245
O         44.44039       46.27674       44.41685
H         44.03951       45.47297       44.83260
H         43.66849       46.78443       44.06980

Ca 1.0



