%chk=holoCaM-CaMKII.loop1.water2.frame457.chk
%nprocshared=20
%mem=10GB
%nosave
#b3lyp/svp scf=(tight,noincore,xqc) Test 
#IOP(5/87=12) Density=Current Pop=(MK,readradii) iop(6/33=2) iop(6/42=6)

holoCaM-CaMKII.loop1.water2.frame457 

   0  1 
C         67.10401       66.85784       43.62820
C         68.24126       67.66428       44.18103
O         68.08890       68.86088       44.35171
H         66.22695       67.50479       43.41350
H         67.42302       66.36250       42.68714
H         66.80565       66.08241       44.36525
N         69.40541       67.04245       44.51365
C         70.59183       67.69107       45.07705
C         71.33265       68.53140       44.02433
O         72.37039       68.10870       43.53118
C         71.50083       66.58054       45.64759
C         72.70512       67.07930       46.38508
O         72.93471       68.27025       46.52537
O         73.53314       66.17513       46.92163
H         69.42325       66.01572       44.39959
H         70.30205       68.31693       45.94877
H         71.83606       65.90817       44.82812
H         70.91180       65.97480       46.37091
N         70.84813       69.73952       43.62832
C         71.44182       70.54393       42.56002
C         72.78666       71.17204       42.91743
O         73.37379       71.77441       42.02863
C         70.46510       71.68041       42.17434
C         69.16922       71.13157       41.55566
C         68.15232       72.25376       41.31518
C         66.90394       71.77849       40.55137
N         66.18079       70.71159       41.24722
H         69.99504       70.08829       44.07685
H         71.58904       69.89415       41.66838
H         70.93038       72.35553       41.42255
H         70.23986       72.28021       43.08537
H         68.70950       70.38379       42.23029
H         69.42260       70.63385       40.59421
H         68.62753       73.05771       40.71212
H         67.85021       72.68645       42.29491
H         67.20009       71.42462       39.53920
H         66.22726       72.65235       40.42398
H         65.93056       71.01135       42.21709
H         65.30323       70.50082       40.71937
H         66.75162       69.83677       41.27650
N         73.31564       71.13913       44.17577
C         74.53891       71.86116       44.54108
C         75.64879       70.94110       45.06871
O         76.70783       71.44974       45.40906
C         74.15707       73.04222       45.46495
C         73.44860       72.63267       46.71778
O         73.68538       71.42243       47.23455
O         72.75069       73.42951       47.32324
H         72.80149       70.65378       44.92408
H         74.98697       72.34724       43.64690
H         73.44807       73.67202       44.88209
H         75.03072       73.68307       45.71218
N         75.53237       69.57893       45.03469
C         76.67007       68.67720       45.18690
C         77.10789       68.31642       46.59398
O         78.03085       67.51860       46.69118
H         74.66614       69.16197       44.66804
H         77.53270       69.07249       44.60759
H         76.39073       67.70958       44.71405
N         76.50973       68.78791       47.72578
C         76.90434       68.32399       49.06696
C         76.49949       66.87265       49.36969
O         76.72266       66.43152       50.48886
C         76.41110       69.29167       50.16348
C         74.93292       69.50609       50.26381
O         74.05623       68.85677       49.47862
O         74.52547       70.38653       51.00418
H         75.77287       69.50171       47.63252
H         78.01302       68.38270       49.14903
H         76.86313       70.28342       49.93919
H         76.79198       68.97033       51.15709
N         75.95464       66.05304       48.42390
C         75.61575       64.65727       48.65367
C         74.33140       64.43923       49.42822
O         73.97734       63.28044       49.60061
H         75.84245       66.38701       47.46337
H         76.46985       64.13653       49.13918
H         75.45503       64.17465       47.66484
N         73.57262       65.46530       49.91693
C         72.32478       65.25552       50.64955
C         71.16909       66.04166       50.03705
O         71.37771       66.82610       49.12078
C         72.52112       65.62214       52.14202
C         73.59053       64.74465       52.80894
O         72.82875       66.98390       52.30439
H         73.89628       66.43114       49.79276
H         72.03414       64.18251       50.60723
H         71.57246       65.42652       52.68527
H         73.75594       67.13674       51.98590
H         74.58369       64.89892       52.33552
H         73.67054       65.00310       53.88537
H         73.31548       63.67226       52.71959
N         69.90207       65.85281       50.50524
C         68.71422       66.54345       50.00757
C         68.06639       67.27232       51.17691
O         67.84844       66.64392       52.20582
C         67.70150       65.52324       49.39542
C         68.36814       64.64758       48.30276
C         66.47991       66.27286       48.81499
C         67.45147       63.53884       47.77252
H         69.76070       65.15758       51.25518
H         68.97922       67.26587       49.20347
H         67.35516       64.84606       50.20808
H         69.25374       64.13834       48.73783
H         68.71092       65.28054       47.45558
H         65.98155       66.87858       49.59306
H         66.79106       66.94633       47.98618
H         65.70738       65.57544       48.43755
H         66.57163       63.94916       47.23799
H         68.01065       62.90740       47.05128
H         67.10432       62.89500       48.60931
N         67.65315       68.56745       51.06838
C         66.93431       69.25798       52.13970
C         65.45464       69.31227       51.82191
O         65.04459       68.89946       50.74981
C         67.47311       70.70333       52.36268
C         68.93596       70.74993       52.79270
O         67.27010       71.50805       51.22813
H         67.74957       69.03527       50.15681
H         67.02879       68.69375       53.09305
H         66.90618       71.17180       53.19394
H         67.95052       71.26668       50.54857
H         69.08627       70.16825       53.72535
H         69.56612       70.34181       51.98585
H         69.23593       71.80521       52.97347
N         64.58808       69.83539       52.72719
C         63.17546       70.07732       52.44897
C         63.04486       71.04588       51.28323
O         62.22114       70.83677       50.40484
C         62.47765       70.68936       53.69462
C         62.41387       69.66776       54.84939
O         63.13170       71.88420       54.07142
H         64.96842       70.13117       53.63878
H         62.65213       69.12682       52.19796
H         61.42607       70.93678       53.42901
H         63.18674       71.94808       55.05962
H         61.87499       70.10960       55.71472
H         61.85838       68.76198       54.52670
H         63.42780       69.36734       55.18484
N         63.84847       72.14267       51.24035
C         63.76196       73.20638       50.24765
C         63.98112       72.66718       48.84355
O         63.12356       72.85884       47.99274
C         64.77193       74.34122       50.57639
C         64.70456       74.86971       52.03541
C         63.30132       75.30801       52.48255
C         63.29713       75.69685       53.96844
N         61.96096       76.10694       54.39900
H         64.55527       72.21955       51.97958
H         62.74403       73.64991       50.29314
H         64.58608       75.18276       49.87464
H         65.81143       73.98173       50.41104
H         65.41177       75.72045       52.13890
H         65.06545       74.09292       52.73858
H         62.58612       74.46678       52.36889
H         62.96303       76.16032       51.85575
H         64.01489       76.52688       54.14696
H         63.61791       74.81982       54.57644
H         61.27573       75.33199       54.24178
H         61.98414       76.33227       55.41982
H         61.66071       76.95703       53.86948
N         65.09118       71.93361       48.55062
C         65.33841       71.30080       47.25489
C         64.16963       70.40535       46.87831
O         63.66020       70.52922       45.77299
C         66.66187       70.49620       47.28657
C         67.88157       71.43122       47.41545
C         69.17957       70.67566       47.45447
O         70.03207       70.87820       46.60534
O         69.43076       69.80463       48.44827
H         65.76320       71.77170       49.31061
H         65.44043       72.07563       46.46203
H         66.76741       69.93327       46.33473
H         66.63524       69.76017       48.12009
H         67.81474       72.04133       48.33704
H         67.89156       72.12514       46.54601
N         63.64489       69.53090       47.77618
C         62.48179       68.72164       47.48796
H         61.62812       69.37365       47.20128
H         62.70510       68.01302       46.66444
H         62.18972       68.14615       48.39280
H         64.05258       69.47506       48.71366
Ca        72.53330       70.31713       48.78666
O         71.86869       69.56939       51.53093
H         72.04394       69.89012       52.45112
H         71.22388       68.82605       51.63809
O         71.33402       72.57564       50.46789
H         72.01732       72.85453       49.80827
H         70.47116       72.82344       50.05061

Ca 1.0



