%chk=holoCaM.loop2.water2.frame108.chk
%nprocshared=20
%mem=10GB
%nosave
#b3lyp/svp scf=(tight,noincore,xqc) Test 
#IOP(5/87=12) Density=Current Pop=(MK,readradii) iop(6/33=2) iop(6/42=6)

holoCaM.loop2.water2.frame108 

   -2  1 
C        -20.23893       24.85883       16.86416
C        -21.26510       25.17642       15.82029
O        -21.22393       24.55886       14.76784
H        -19.22354       25.06519       16.46757
H        -20.39974       25.45340       17.78650
H        -20.31185       23.78016       17.12353
N        -22.23827       26.10580       16.04730
C        -23.31801       26.36479       15.10502
C        -23.36229       27.82983       14.68550
O        -23.44325       28.68432       15.55896
C        -24.65246       25.96326       15.75996
C        -25.70151       25.98016       14.70282
O        -26.63031       26.76831       14.74833
O        -25.54044       25.14534       13.65782
H        -22.25000       26.60698       16.94915
H        -23.18343       25.73499       14.19916
H        -24.89404       26.64991       16.60207
H        -24.59490       24.92737       16.15732
N        -23.34964       28.19166       13.36356
C        -23.38575       29.58261       12.91168
C        -24.57584       29.93181       12.00910
O        -24.70823       31.10475       11.69422
C        -22.08666       29.88482       12.15671
H        -23.28452       27.45210       12.64915
H        -23.43991       30.26397       13.78836
H        -22.00947       29.24023       11.25321
H        -22.05186       30.94841       11.83788
H        -21.21035       29.68672       12.80925
N        -25.44262       28.99666       11.51059
C        -26.52101       29.32749       10.56400
C        -27.90850       28.84591       11.01440
O        -28.86602       29.12061       10.30168
C        -26.14104       28.82192        9.14928
C        -25.78684       27.36826        9.14027
O        -26.67676       26.46851        9.57091
O        -24.64859       27.01317        8.87703
H        -25.28835       28.00888       11.73972
H        -26.62198       30.42938       10.46229
H        -25.24939       29.39529        8.81095
H        -26.96297       29.02215        8.42899
N        -28.11918       28.19038       12.19234
C        -29.44642       27.86972       12.71562
C        -30.24061       26.80865       11.96569
O        -31.36852       26.56155       12.36977
H        -27.31756       27.99752       12.80231
H        -30.04315       28.80682       12.75500
H        -29.33715       27.50139       13.75916
N        -29.74603       26.12937       10.89278
C        -30.50391       25.11255       10.15588
C        -30.77019       23.81573       10.94284
O        -31.36799       22.91364       10.37145
C        -29.81952       24.80671        8.79664
C        -28.44754       24.18121        8.85824
N        -27.80392       23.86854        7.71104
O        -27.90568       23.96116        9.92811
H        -28.81407       26.37847       10.55485
H        -31.48937       25.55184        9.88253
H        -29.73415       25.75782        8.22616
H        -30.47820       24.12635        8.21468
H        -28.23980       24.05283        6.79590
H        -26.86913       23.43832        7.73629
N        -30.39839       23.64852       12.24759
C        -30.67620       22.44343       13.02307
C        -29.79018       21.24780       12.69454
O        -29.98152       20.21336       13.31730
H        -29.96433       24.42653       12.75377
H        -31.75070       22.17627       12.91290
H        -30.50143       22.66935       14.09706
N        -28.80977       21.30168       11.74751
C        -27.95938       20.17441       11.36897
C        -26.48068       20.54436       11.41822
O        -26.09616       21.53844       10.81812
C        -28.31173       19.72599        9.93138
C        -29.72456       19.14595        9.86034
O        -28.21741       20.79953        9.02765
H        -28.68335       22.17074       11.22532
H        -28.12972       19.29553       12.02991
H        -27.62236       18.90124        9.62844
H        -27.28869       20.81344        8.67870
H        -29.93431       18.80080        8.82630
H        -29.81430       18.27540       10.54547
H        -30.48179       19.90749       10.14176
N        -25.57605       19.73158       12.04371
C        -24.12815       19.94502       11.95913
C        -23.68266       19.88437       10.49566
O        -23.77442       18.83328        9.87656
C        -23.35686       18.90508       12.84924
C        -23.58290       19.24698       14.34816
C        -21.84793       18.86554       12.53208
C        -22.94121       18.26581       15.33364
H        -25.92782       18.90330       12.54791
H        -23.89295       20.95657       12.34932
H        -23.75081       17.88767       12.62778
H        -24.67178       19.26831       14.56245
H        -23.16937       20.25792       14.55758
H        -21.32965       18.08511       13.12298
H        -21.67460       18.57422       11.47795
H        -21.37854       19.84762       12.73039
H        -23.17590       18.58547       16.37101
H        -23.33748       17.24173       15.17531
H        -21.83581       18.25589       15.24521
N        -23.18577       21.00425        9.88979
C        -22.65159       21.04127        8.52631
C        -21.27813       20.37841        8.48704
O        -20.81074       19.93943        9.52263
C        -22.51869       22.50581        8.04323
C        -23.84680       23.21638        7.97551
O        -24.57318       23.42695        9.08967
O        -24.26154       23.63166        6.90520
H        -23.18064       21.87721       10.43117
H        -23.35104       20.51845        7.83640
H        -22.07909       22.51487        7.02320
H        -21.83774       23.07189        8.71428
N        -20.56160       20.26632        7.32931
C        -19.23530       19.65046        7.29434
C        -18.20000       20.44684        8.10208
O        -17.63780       19.84427        9.00616
C        -18.77995       19.35587        5.84492
C        -17.39542       18.74341        5.79511
C        -17.11116       17.54364        6.47443
C        -16.36975       19.37479        5.06844
C        -15.82604       16.99523        6.43383
C        -15.08771       18.81778        5.02492
C        -14.81546       17.63072        5.70909
H        -20.98293       20.59450        6.44754
H        -19.32748       18.64715        7.76731
H        -18.81082       20.26254        5.21975
H        -19.50283       18.64686        5.38713
H        -17.87791       17.03282        7.04138
H        -16.55979       20.29764        4.53458
H        -15.61392       16.07649        6.96531
H        -14.30396       19.30777        4.46177
H        -13.82176       17.20287        5.67748
N        -17.87271       21.76504        7.87939
C        -16.90433       22.51033        8.68575
C        -17.14711       22.37677       10.17334
O        -16.21419       22.13964       10.92718
C        -17.14140       23.97255        8.27888
C        -17.52606       23.82930        6.83231
C        -18.46896       22.62874        6.87736
H        -15.87393       22.18784        8.41343
H        -18.04294       24.37996        8.79241
H        -16.28741       24.65188        8.48982
H        -17.95475       24.73904        6.36097
H        -16.60567       23.53637        6.27609
H        -19.49227       22.90587        7.21194
H        -18.48872       22.21189        5.86040
N        -18.41575       22.50269       10.64456
C        -18.79282       22.42903       12.04836
C        -18.33515       21.11073       12.65123
O        -17.62235       21.12942       13.64515
C        -20.32288       22.62691       12.19007
C        -20.76673       24.01872       11.67479
C        -22.23982       24.27540       11.81577
O        -23.05325       23.38042       12.40239
O        -22.70826       25.31834       11.39106
H        -19.15765       22.63758        9.94358
H        -18.29942       23.25577       12.60732
H        -20.59760       22.53065       13.26194
H        -20.85873       21.83929       11.61820
H        -20.53075       24.12822       10.59853
H        -20.21932       24.81133       12.22766
N        -18.66291       19.92675       12.07095
C        -18.20261       18.65231       12.57542
H        -17.09186       18.62700       12.58445
H        -18.59129       18.48501       13.60111
H        -18.56584       17.83401       11.91641
H        -19.23242       19.92918       11.22151
Ca       -26.05883       25.57439       11.52461
O        -27.71586       23.69246       13.39157
H        -27.42967       22.80344       13.71361
H        -28.03764       24.16233       14.20195
O        -24.86671       22.43156       14.47098
H        -25.44139       22.47840       15.27496
H        -23.95827       22.64236       14.80309

Ca 1.0



