%chk=holoCaM-CaMKII.loop4.water1.frame490.chk
%nprocshared=20
%mem=10GB
%nosave
#b3lyp/svp scf=(tight,noincore,xqc) Test 
#IOP(5/87=12) Density=Current Pop=(MK,readradii) iop(6/33=2) iop(6/42=6)

holoCaM-CaMKII.loop4.water1.frame490 

   -3  1 
C        103.71971       90.93499       77.67138
C        103.78571       91.01464       76.17381
O        103.40649       90.07397       75.49419
H        103.06096       91.74351       78.05559
H        103.32184       89.95537       78.00655
H        104.73777       91.07579       78.09410
N        104.26499       92.14524       75.59766
C        104.37045       92.36922       74.15850
C        105.34062       91.36352       73.52052
O        106.46378       91.25828       73.99204
C        104.85083       93.82685       73.95839
C        104.78978       94.34566       72.56010
O        105.22238       95.59269       72.31621
O        104.31239       93.68622       71.65699
H        104.55418       92.90410       76.23685
H        103.35604       92.28071       73.70987
H        105.88958       93.92435       74.33949
H        104.19818       94.50720       74.55001
N        104.97820       90.60796       72.43571
C        105.83190       89.59255       71.79957
C        106.34869       90.07020       70.42758
O        107.12612       89.35941       69.81010
C        105.03251       88.23699       71.68530
C        104.46805       87.81390       73.06959
C        105.88129       87.09129       71.08413
C        103.63485       86.52433       73.04926
H        104.04995       90.75991       72.02787
H        106.73389       89.42119       72.42645
H        104.16396       88.40242       71.00779
H        103.79397       88.61554       73.43209
H        105.29563       87.69016       73.80056
H        105.29328       86.15971       70.98298
H        106.19351       87.29475       70.04569
H        106.77471       86.89353       71.71291
H        103.19011       86.35513       74.05183
H        102.81675       86.58996       72.30410
H        104.25626       85.63677       72.81777
N        106.00929       91.27992       69.90375
C        106.43024       91.74704       68.58299
C        107.37486       92.91969       68.72135
O        108.47229       92.88559       68.18345
C        105.18510       92.18863       67.77461
C        104.28213       91.03238       67.48684
O        104.55015       90.26179       66.58001
O        103.33342       90.69222       68.37072
H        105.41888       91.90838       70.45471
H        106.95864       90.95212       68.01071
H        105.47629       92.65206       66.80738
H        104.61448       92.95789       68.33908
N        106.96739       94.01746       69.39940
C        107.69086       95.27061       69.49068
C        106.87403       96.32280       68.77696
O        107.38401       96.99243       67.89093
H        106.04742       93.97062       69.84706
H        108.70476       95.20609       69.03832
H        107.80438       95.53382       70.56420
N        105.55166       96.44767       69.07510
C        104.60871       97.32291       68.40274
C        103.82972       98.16649       69.41294
O        102.91019       98.86656       69.01363
C        103.69337       96.46167       67.49551
C        102.87287       95.37947       68.15476
O        102.17922       94.66127       67.45563
O        102.89546       95.16762       69.48190
H        105.15750       95.83492       69.79450
H        105.13710       98.01814       67.71409
H        104.34816       95.95886       66.74850
H        103.00327       97.13102       66.93940
N        104.17476       98.18304       70.73573
C        103.51855       98.98364       71.75374
C        102.14212       98.50438       72.17428
O        101.60822       99.11507       73.09075
H        105.00660       97.67014       71.04977
H        103.48226      100.04502       71.42825
H        104.14521       98.93682       72.67207
N        101.49690       97.44820       71.59375
C        100.18136       96.98040       72.03536
C        100.20027       95.50612       72.39816
O        101.17807       94.82943       72.09942
C         99.10702       97.37114       70.99312
C         99.31045       96.90513       69.53434
C         98.96615       95.46010       69.26926
N         97.94972       95.15156       68.42876
O         99.61216       94.56234       69.78420
H        101.93658       96.96652       70.80242
H         99.90013       97.50730       72.97341
H         99.14049       98.48292       70.95745
H         98.09033       97.08904       71.34243
H        100.33831       97.12707       69.18058
H         98.62791       97.52705       68.91597
H         97.39408       95.88756       67.96888
H         97.71498       94.17190       68.22752
N         99.17968       94.95710       73.12725
C         99.17437       93.56078       73.56145
C         97.81058       92.93587       73.26904
O         96.83114       93.33556       73.88560
C         99.52026       93.46282       75.07934
C         99.67989       91.99850       75.51812
C        100.81875       94.21773       75.41715
H         98.41771       95.57358       73.45214
H         99.96265       93.00332       73.00998
H         98.70311       93.92915       75.67342
H        100.51737       91.52509       74.96322
H         99.90682       91.94170       76.60432
H         98.75109       91.42226       75.33554
H        101.67543       93.80788       74.84273
H        100.71743       95.29937       75.18875
H        101.04333       94.13288       76.50226
N         97.66810       91.96456       72.32321
C         96.38833       91.32021       72.00796
C         95.97753       90.32776       73.09005
O         96.69888       90.16663       74.05587
C         96.48453       90.57033       70.65804
C         96.77461       91.50487       69.51383
N         97.81658       91.27894       68.68315
O         96.04008       92.46141       69.31661
H         98.49633       91.71110       71.77078
H         95.59906       92.09755       71.90426
H         95.51413       90.08907       70.42266
H         97.25547       89.77156       70.72127
H         98.42061       90.45571       68.80242
H         98.00156       91.91170       67.89418
N         94.82195       89.60854       72.97265
C         94.41257       88.54804       73.89579
C         95.37617       87.37173       73.83511
O         95.83604       86.92968       74.87774
C         92.98250       88.07773       73.54895
C         92.46030       87.04338       74.52118
C         91.71670       87.44042       75.64523
C         92.70416       85.67496       74.31019
C         91.22824       86.48667       76.54365
C         92.21060       84.72219       75.20770
C         91.47046       85.12610       76.32857
O         90.98706       84.21940       77.20197
H         94.20279       89.81565       72.17512
H         94.37212       88.95336       74.93217
H         92.91325       87.68884       72.50914
H         92.31876       88.96916       73.59321
H         91.51866       88.48896       75.82908
H         93.27085       85.34489       73.44850
H         90.65900       86.80614       77.40764
H         92.40237       83.67126       75.03045
H         91.12689       83.26843       77.08825
N         95.71728       86.81354       72.63700
C         96.61822       85.66606       72.49200
C         97.92878       85.90492       73.23006
O         98.36993       85.04170       73.97523
C         96.80611       85.32022       70.98940
C         97.59456       86.36092       70.17222
C         97.44878       86.10713       68.69808
O         96.23490       86.20603       68.12061
O         98.42306       85.84504       68.01165
H         95.32322       87.24000       71.78416
H         96.12625       84.77912       72.94982
H         95.78445       85.20939       70.56209
H         97.31725       84.33783       70.88089
H         98.66647       86.31598       70.46811
H         97.21559       87.38408       70.35857
N         98.53444       87.11803       73.14599
C         99.71776       87.51619       73.90670
C         99.44738       87.43566       75.40012
O        100.18412       86.75644       76.10093
C        100.11091       88.95460       73.49619
C        100.57920       88.95156       72.03805
C        100.76595       90.30472       71.44382
O        101.65541       91.17097       71.93828
O        100.23796       90.55790       70.37591
H         98.08774       87.81997       72.53752
H        100.57162       86.84319       73.66703
H        100.93945       89.33676       74.13110
H         99.23292       89.62353       73.61739
H         99.86196       88.41254       71.38631
H        101.54430       88.41391       71.98031
N         98.38850       88.09069       75.94631
C         98.04094       88.06604       77.35064
H         97.03063       87.61890       77.46829
H         98.76232       87.48037       77.95558
H         98.01236       89.10715       77.73562
H         97.77394       88.62253       75.33047
Ca       102.77327       91.92608       70.16375
O        100.40315       92.33619       66.74058
H        100.11588       93.12485       67.26540
H         99.67536       92.20273       66.08285

Ca 1.0



