%chk=holoCaM-CaMKII.loop2.water2.frame80.chk
%nprocshared=20
%mem=10GB
%nosave
#b3lyp/svp scf=(tight,noincore,xqc) Test 
#IOP(5/87=12) Density=Current Pop=(MK,readradii) iop(6/33=2) iop(6/42=6)

holoCaM-CaMKII.loop2.water2.frame80 

   -2  1 
C        -15.96720       73.04965       81.94333
C        -17.39979       72.76659       81.65434
O        -17.78624       72.65651       80.50186
H        -15.37529       73.08328       81.00820
H        -15.90901       74.03250       82.45689
H        -15.56617       72.26548       82.61888
N        -18.25497       72.63106       82.69148
C        -19.66937       72.38344       82.52291
C        -20.41411       73.55873       81.88718
O        -20.14845       74.70463       82.21954
C        -20.28260       72.06485       83.89488
C        -21.64610       71.49920       83.79486
O        -22.35835       71.30810       84.91921
O        -22.05996       71.08659       82.72722
H        -17.86117       72.65074       83.64609
H        -19.77107       71.50005       81.87561
H        -20.29650       72.97910       84.51986
H        -19.69110       71.28814       84.41899
N        -21.41171       73.30426       80.99213
C        -22.29503       74.28307       80.37018
C        -23.78669       73.86278       80.36275
O        -24.58749       74.61344       79.82325
C        -21.81337       74.53596       78.94440
H        -21.54848       72.33732       80.73123
H        -22.21552       75.25005       80.90385
H        -21.78328       73.60991       78.32822
H        -22.49279       75.26281       78.45893
H        -20.79894       74.98909       78.99190
N        -24.23298       72.68407       80.89301
C        -25.63462       72.24052       80.88772
C        -26.12983       71.68162       82.22579
O        -27.33809       71.63389       82.42156
C        -25.87050       71.20904       79.76458
C        -24.82126       70.13352       79.66327
O        -24.33684       69.86637       78.57479
O        -24.25416       69.64527       80.77665
H        -23.53803       72.03971       81.24706
H        -26.29737       73.10304       80.66710
H        -25.81917       71.77880       78.81656
H        -26.88312       70.76014       79.84945
N        -25.27683       71.21010       83.17528
C        -25.70080       70.63328       84.43876
C        -26.10708       69.17887       84.33579
O        -26.70093       68.67215       85.27399
H        -24.28408       71.23387       82.99770
H        -26.59372       71.18397       84.78204
H        -24.89264       70.75708       85.19085
N        -25.87304       68.46316       83.20801
C        -26.43767       67.15901       82.90628
C        -25.79180       65.99770       83.66039
O        -26.11406       64.85383       83.36320
C        -26.35839       66.92219       81.38156
C        -25.00548       66.74962       80.79676
N        -24.90696       66.45372       79.49811
O        -23.99886       66.88978       81.45714
H        -25.35721       68.91943       82.47446
H        -27.52287       67.21678       83.12695
H        -26.78871       67.78895       80.84600
H        -26.94070       66.01290       81.12639
H        -25.74005       66.39854       78.89858
H        -23.98853       66.26372       79.12392
N        -24.84276       66.21640       84.61450
C        -24.13463       65.17378       85.34009
C        -22.77553       64.78901       84.74075
O        -22.01168       64.11463       85.41366
H        -24.65121       67.17761       84.90972
H        -24.76355       64.26123       85.41203
H        -23.98218       65.54636       86.37210
N        -22.48078       65.05470       83.43992
C        -21.37667       64.45791       82.67962
C        -20.59871       65.41253       81.78842
O        -21.14796       66.37228       81.27564
C        -21.91996       63.34875       81.73638
C        -22.30251       62.09429       82.50865
O        -23.01983       63.74973       80.94802
H        -23.18877       65.55940       82.93947
H        -20.63222       63.99035       83.35898
H        -21.08752       63.05682       81.06147
H        -23.08284       64.73443       80.94531
H        -23.34608       62.15600       82.87759
H        -22.20189       61.22046       81.83011
H        -21.61145       61.93395       83.36223
N        -19.32185       65.08147       81.42964
C        -18.53895       65.87238       80.48812
C        -18.95915       65.53650       79.06113
O        -18.88307       64.38912       78.64344
C        -17.00644       65.73992       80.72488
C        -16.67516       66.09483       82.20391
C        -16.23008       66.66852       79.77087
C        -15.17987       66.13154       82.52061
H        -18.91079       64.22000       81.82348
H        -18.74611       66.93928       80.69249
H        -16.69069       64.69649       80.50670
H        -17.15570       65.34859       82.86863
H        -17.09460       67.09303       82.46454
H        -15.14810       66.43173       79.81420
H        -16.53771       66.52225       78.71681
H        -16.37344       67.73216       80.06012
H        -14.73736       67.05435       82.08763
H        -15.02879       66.15597       83.62144
H        -14.65620       65.24477       82.10945
N        -19.39548       66.54162       78.25864
C        -19.85148       66.42164       76.88495
C        -18.70935       66.68708       75.93134
O        -17.62730       66.95947       76.40822
C        -20.96983       67.43577       76.65183
C        -22.08512       67.17307       77.58365
O        -22.94485       66.39403       77.21953
O        -22.16070       67.78459       78.78529
H        -19.36376       67.48006       78.63012
H        -20.24956       65.40090       76.71477
H        -21.37059       67.27654       75.63107
H        -20.64171       68.49893       76.73880
N        -18.83513       66.57337       74.57631
C        -17.67210       66.74290       73.69351
C        -17.12434       68.17738       73.64369
O        -15.91700       68.32169       73.78122
C        -17.89105       66.16711       72.27411
C        -16.63317       66.26648       71.41829
C        -16.73203       66.84445       70.14426
C        -15.36392       65.80775       71.85741
C        -15.61457       66.94584       69.31756
C        -14.24027       65.93904       71.03080
C        -14.36859       66.50055       69.75996
H        -19.74831       66.28348       74.18657
H        -16.87592       66.10097       74.11865
H        -18.73967       66.67228       71.76816
H        -18.16626       65.09257       72.34216
H        -17.67902       67.21866       69.78214
H        -15.21349       65.37563       72.83917
H        -15.72223       67.38416       68.33606
H        -13.26489       65.61399       71.37423
H        -13.50053       66.60402       69.12250
N        -17.90214       69.28155       73.41392
C        -17.37865       70.64007       73.36119
C        -16.88728       71.10983       74.70475
O        -16.05984       72.00917       74.75100
C        -18.54034       71.46486       72.81179
C        -19.79327       70.66879       73.13470
C        -19.33135       69.22412       73.23958
H        -16.50613       70.72558       72.67283
H        -18.60463       72.51312       73.16967
H        -18.43251       71.45277       71.70641
H        -20.16915       70.98825       74.13015
H        -20.59418       70.81264       72.37686
H        -19.81711       68.78287       74.13731
H        -19.55870       68.64851       72.32694
N        -17.30768       70.51914       75.84338
C        -16.70589       70.81310       77.12863
C        -15.32304       70.18163       77.19995
O        -14.37996       70.83521       77.61857
C        -17.57704       70.24388       78.22263
C        -18.97790       70.88486       78.21833
C        -19.78750       70.27148       79.27694
O        -20.91566       70.65610       79.48154
O        -19.31170       69.21742       79.93521
H        -18.05011       69.80242       75.79296
H        -16.66374       71.90783       77.32203
H        -17.07397       70.44456       79.19560
H        -17.67836       69.14651       78.08430
H        -19.52351       70.68744       77.27458
H        -18.92255       71.98159       78.38260
N        -15.14757       68.89616       76.78546
C        -13.90403       68.16246       76.82580
H        -13.09089       68.74520       77.29879
H        -14.06166       67.22492       77.40185
H        -13.60609       67.88718       75.79068
H        -15.94415       68.40559       76.38692
Ca       -22.20178       68.79987       80.78141
O        -22.46604       68.36474       83.73812
H        -22.33486       67.93455       84.61435
H        -22.80174       69.24617       84.00049
O        -19.67307       68.96621       82.84859
H        -18.73688       68.87945       83.13534
H        -19.55320       69.45869       82.02225

Ca 1.0



