%chk=holoCaM-CaMKII.loop3.water2.frame46.chk
%nprocshared=20
%mem=10GB
%nosave
#b3lyp/svp scf=(tight,noincore,xqc) Test 
#IOP(5/87=12) Density=Current Pop=(MK,readradii) iop(6/33=2) iop(6/42=6)

holoCaM-CaMKII.loop3.water2.frame46 

   0  1 
C         12.14203       49.69929        7.05197
C         12.77200       48.36897        7.33617
O         12.06247       47.37338        7.37005
H         11.37333       49.91556        7.82248
H         12.89548       50.51509        7.06574
H         11.66343       49.67677        6.05086
N         14.11443       48.27073        7.53774
C         14.77243       47.00274        7.80979
C         14.31866       46.46515        9.16434
O         14.40523       47.17899       10.15414
C         16.30039       47.17944        7.79190
C         17.03026       45.86412        7.81432
O         18.23963       45.86032        7.93961
O         16.38232       44.68706        7.71084
H         14.68908       49.12547        7.47038
H         14.52139       46.29989        6.98334
H         16.59911       47.79477        8.66837
H         16.62090       47.71319        6.87191
N         13.83384       45.20017        9.26967
C         13.32609       44.60333       10.50517
C         14.34546       44.64881       11.64171
O         13.98979       45.11936       12.71339
C         12.84522       43.17052       10.18945
C         12.15460       42.44305       11.35100
C         11.49185       41.15550       10.83071
C         10.75533       40.39160       11.93566
N         10.02985       39.24867       11.37741
H         13.81585       44.63067        8.40968
H         12.42655       45.17508       10.82797
H         13.69020       42.55483        9.82599
H         12.10073       43.26672        9.36806
H         11.36011       43.09612       11.77212
H         12.89482       42.21234       12.14798
H         12.25467       40.48696       10.37691
H         10.75267       41.43613       10.04756
H         10.02760       41.06741       12.43645
H         11.48965       40.03718       12.69242
H          9.54984       38.73366       12.15017
H          9.30557       39.58303       10.69968
H         10.68883       38.59839       10.89094
N         15.62840       44.21298       11.47730
C         16.62986       44.21070       12.55371
C         17.75076       45.23030       12.33278
O         18.64638       45.28775       13.16462
C         17.16005       42.76643       12.76827
C         17.86118       42.17235       11.57511
O         18.15618       40.98986       11.55718
O         18.19836       42.96288       10.54983
H         15.90299       43.87893       10.54311
H         16.15764       44.50787       13.51633
H         16.27775       42.13131       12.99575
H         17.84641       42.72438       13.64223
N         17.74075       46.11631       11.29101
C         18.73435       47.17431       11.14040
C         20.12468       46.70871       10.74351
O         21.00573       47.55483       10.68035
H         16.95416       46.11252       10.62916
H         18.79123       47.74451       12.09415
H         18.39875       47.88229       10.35298
N         20.41338       45.40810       10.44836
C         21.75807       44.95009       10.10615
C         22.29410       45.52289        8.78619
O         23.45946       45.28918        8.49977
C         21.84120       43.39696       10.11864
C         21.06878       42.67561        9.03830
N         21.12430       41.32662        8.95494
O         20.40152       43.29525        8.22999
H         19.66818       44.71574       10.51661
H         22.42823       45.29401       10.92494
H         21.48260       43.02775       11.10512
H         22.90723       43.10335       10.01469
H         21.67905       40.77850        9.62795
H         20.61821       40.82779        8.20851
N         21.51704       46.25961        7.93213
C         21.99940       46.84716        6.68649
C         21.35226       46.25184        5.44322
O         21.69189       46.69595        4.35522
H         20.53427       46.42978        8.16174
H         23.09601       46.70088        6.57778
H         21.80972       47.94049        6.72010
N         20.49620       45.19143        5.51255
C         20.05401       44.40976        4.35798
C         18.56406       44.11712        4.45262
O         18.12529       43.69155        5.51241
C         20.83881       43.08186        4.37901
C         22.33085       43.34084        4.38686
C         23.09659       42.99873        5.51490
C         22.96337       43.95559        3.29160
C         24.46544       43.27524        5.55197
C         24.33508       44.22795        3.32985
C         25.08981       43.89110        4.46316
O         26.41066       44.15638        4.51908
H         20.26388       44.81194        6.43460
H         20.28786       44.92153        3.39799
H         20.56970       42.45046        3.50465
H         20.55841       42.52632        5.30040
H         22.63241       42.53337        6.37499
H         22.39522       44.23143        2.41221
H         25.03972       43.01601        6.43245
H         24.80882       44.70633        2.48167
H         26.88134       44.58651        3.79101
N         17.72953       44.26990        3.38141
C         16.28554       44.03060        3.45688
C         15.90108       42.81489        2.61773
O         16.29057       42.72670        1.46129
C         15.48437       45.29450        3.02958
C         15.99106       46.53952        3.80486
C         13.97727       45.05900        3.28310
C         15.25830       47.83573        3.45500
H         18.12746       44.56681        2.47636
H         15.99040       43.82676        4.51042
H         15.64233       45.47595        1.94289
H         17.06268       46.70128        3.55834
H         15.90961       46.36598        4.89768
H         13.61213       44.17391        2.72509
H         13.78592       44.89686        4.36704
H         13.36604       45.91447        2.93580
H         15.73491       48.68231        3.99231
H         15.31211       48.02936        2.36272
H         14.19767       47.79751        3.77595
N         15.08211       41.86059        3.14944
C         14.65001       40.63943        2.47334
C         13.15095       40.69573        2.18027
O         12.52072       41.68408        2.51638
C         15.00649       39.45471        3.39769
O         14.67310       38.21475        2.83845
H         14.71671       42.01878        4.09644
H         15.17878       40.52532        1.50237
H         14.46172       39.55785        4.36102
H         16.09234       39.47384        3.64659
H         15.38770       37.99512        2.18654
N         12.51718       39.68643        1.51390
C         11.08734       39.69217        1.19840
C         10.23070       39.65501        2.45245
O          9.38709       40.52360        2.62168
C         10.73194       38.48796        0.31729
H         13.08049       38.88955        1.18408
H         10.84615       40.60558        0.60907
H         10.95531       37.53072        0.83471
H          9.65116       38.51038        0.05813
H         11.31655       38.52618       -0.62602
N         10.39770       38.66418        3.37439
C          9.60933       38.54812        4.60063
C          9.68293       39.81963        5.41883
O          8.65292       40.32299        5.84511
C         10.12460       37.37192        5.44234
H         11.14146       37.96958        3.20330
H          8.54590       38.33903        4.34847
H          9.52031       37.26667        6.36918
H         10.04346       36.42621        4.86530
H         11.18861       37.52378        5.72693
N         10.88617       40.40899        5.63976
C         11.06893       41.63473        6.40979
C         10.23530       42.76851        5.83155
O          9.50397       43.40654        6.57596
C         12.56628       42.01528        6.46570
C         13.39563       40.90192        7.14345
C         14.83542       41.26611        7.32682
O         15.54350       41.52169        6.36760
O         15.36862       41.24766        8.56105
H         11.70779       39.96599        5.20450
H         10.74034       41.46412        7.45934
H         12.67175       42.95080        7.05396
H         12.94398       42.21079        5.44213
H         13.36916       39.96573        6.55369
H         12.96130       40.68631        8.14010
N         10.25387       43.03843        4.49961
C          9.44663       44.07575        3.89592
H          8.37180       43.90185        4.11785
H          9.75450       45.06946        4.28149
H          9.58072       44.06272        2.79218
H         10.83044       42.45998        3.88458
Ca        17.55039       42.91671        8.42151
O         17.90007       39.65388        8.65632
H         18.11140       38.70900        8.85980
H         18.56639       40.17076        9.17236
O         18.55532       40.72880        5.86157
H         19.38266       40.24210        6.10365
H         18.59619       40.81279        4.87588

Ca 1.0



