%chk=holoCaM.loop1.water2.frame417.chk
%nprocshared=20
%mem=10GB
%nosave
#b3lyp/svp scf=(tight,noincore,xqc) Test 
#IOP(5/87=12) Density=Current Pop=(MK,readradii) iop(6/33=2) iop(6/42=6)

holoCaM.loop1.water2.frame417 

   0  1 
C         13.90035      100.18446       29.87591
C         14.73008      100.96246       28.90259
O         14.17514      101.53025       27.97152
H         12.82558      100.23083       29.59562
H         14.22643       99.12492       29.88586
H         14.01859      100.61965       30.89078
N         16.07901      101.06392       29.07497
C         16.89931      101.88533       28.19725
C         16.92023      101.29267       26.79055
O         17.42876      100.19539       26.60732
C         18.32367      102.05477       28.77281
C         19.06627      103.18813       28.11920
O         18.47114      103.91569       27.15594
O         20.17162      103.50497       28.52380
H         16.50980      100.60071       29.89057
H         16.43023      102.89621       28.19900
H         18.89480      101.10318       28.70365
H         18.23740      102.32896       29.84744
N         16.31403      101.95043       25.76349
C         16.14998      101.39916       24.42020
C         17.45750      101.18685       23.67299
O         17.49602      100.29883       22.83329
C         15.17984      102.27861       23.58665
C         15.79362      103.61525       23.11995
C         14.74336      104.64391       22.66469
C         13.86219      104.20898       21.48400
N         14.63965      103.99067       20.26488
H         15.84903      102.83755       25.98266
H         15.64387      100.41505       24.54291
H         14.28480      102.46769       24.22084
H         14.84164      101.72455       22.68506
H         16.54437      103.43053       22.32417
H         16.34215      104.07678       23.94972
H         15.26516      105.58897       22.39698
H         14.07759      104.86531       23.52661
H         13.12144      105.01815       21.29606
H         13.29348      103.29024       21.74339
H         15.16484      104.85976       20.01390
H         15.30357      103.19411       20.38946
H         13.98403      103.75642       19.48500
N         18.52771      102.02175       23.84646
C         19.74705      101.93513       23.03724
C         20.99459      101.61702       23.85354
O         22.05367      101.47154       23.25773
C         19.91765      103.23004       22.20991
C         20.18742      104.47945       23.01049
O         20.33132      104.43866       24.34700
O         20.30221      105.54785       22.43228
H         18.45426      102.77549       24.54488
H         19.64932      101.10741       22.30204
H         18.99132      103.38334       21.61463
H         20.76025      103.09826       21.49721
N         20.95310      101.46159       25.20601
C         22.10622      101.07911       25.99960
C         23.20968      102.10946       25.99629
O         24.34238      101.76122       25.69459
H         20.06189      101.57023       25.70974
H         22.49179      100.09578       25.65047
H         21.78069      100.95702       27.05550
N         22.95717      103.38732       26.39311
C         24.00136      104.37901       26.63873
C         23.98583      104.80849       28.11303
O         24.70481      105.73103       28.47086
C         23.89810      105.54571       25.63016
C         22.68921      106.41871       25.75157
O         21.80757      106.24065       26.74428
O         22.52109      107.32598       24.95308
H         21.98163      103.65151       26.59575
H         25.00656      103.94228       26.44952
H         23.91795      105.11172       24.60611
H         24.78991      106.20069       25.73876
N         23.25310      104.11232       29.03986
C         23.30047      104.34590       30.47315
C         22.43474      105.47890       30.98813
O         22.43791      105.65852       32.19790
H         22.74287      103.26769       28.75090
H         24.35730      104.47878       30.79409
H         22.92456      103.42975       30.97936
N         21.68380      106.28864       30.18039
C         20.90527      107.41390       30.70403
C         19.45909      107.40484       30.21328
O         19.22124      107.51744       29.01930
C         21.58606      108.74733       30.32705
C         22.97632      108.86298       30.95697
O         21.71013      108.86758       28.93284
H         21.71463      106.15112       29.16436
H         20.88457      107.38393       31.81558
H         20.98010      109.58837       30.74422
H         20.96581      109.44530       28.62290
H         23.42430      109.84509       30.69956
H         22.90388      108.78760       32.06344
H         23.64935      108.06168       30.58479
N         18.43454      107.31442       31.10906
C         17.02135      107.45044       30.75391
C         16.72149      108.91825       30.42457
O         17.01337      109.78599       31.23419
C         16.12408      106.92862       31.92543
C         16.38443      105.42428       32.24651
C         14.62318      107.15179       31.66538
C         16.04810      104.43500       31.11826
H         18.67280      107.17472       32.10266
H         16.78733      106.81624       29.87411
H         16.37646      107.51068       32.83947
H         15.77867      105.14149       33.13510
H         17.44891      105.27739       32.52214
H         14.02678      106.78036       32.52564
H         14.39632      108.22946       31.54731
H         14.28951      106.62251       30.75575
H         16.66147      104.62115       30.21415
H         16.26510      103.40119       31.46107
H         14.97306      104.47429       30.84836
N         16.07162      109.24382       29.27011
C         15.66238      110.59145       28.87604
C         14.17612      110.77216       29.15656
O         13.55150      109.87614       29.69851
C         15.91139      110.80861       27.34840
C         17.36686      110.60275       26.92393
O         15.04425      110.01361       26.57203
H         15.76182      108.48099       28.67339
H         16.22536      111.35597       29.45357
H         15.67902      111.86272       27.09155
H         15.43314      109.10911       26.48363
H         18.03080      111.30255       27.47048
H         17.68642      109.55894       27.12121
H         17.46084      110.79909       25.83260
N         13.53644      111.91373       28.77402
C         12.08399      112.07161       28.82814
C         11.40056      111.05837       27.90918
O         10.44321      110.43516       28.34653
C         11.66328      113.51566       28.46787
C         12.17228      114.51355       29.52168
O         12.14181      113.86285       27.19444
H         14.09810      112.68020       28.38024
H         11.72523      111.89892       29.86887
H         10.54855      113.55268       28.47466
H         11.67041      114.69526       26.92918
H         11.77458      114.24577       30.52494
H         13.28082      114.52352       29.57220
H         11.82204      115.53795       29.27695
N         11.84981      110.80879       26.63983
C         11.25574      109.78585       25.76786
C         11.35720      108.36050       26.32268
O         10.73055      107.48332       25.74853
C         11.93899      109.77361       24.37603
C         11.64668      110.99030       23.48411
C         10.18086      111.00903       23.01602
C          9.93765      112.08661       21.95354
N          8.55085      112.04898       21.48771
H         12.65052      111.35845       26.29052
H         10.17256      110.00448       25.66314
H         11.61817      108.87978       23.79557
H         13.03711      109.67908       24.52953
H         12.28740      110.88269       22.58084
H         11.92048      111.94019       23.99096
H          9.50278      111.18378       23.87674
H          9.93562      110.02297       22.56232
H         10.61365      111.90804       21.08707
H         10.16244      113.09016       22.37614
H          8.41475      112.77908       20.75208
H          8.33491      111.11215       21.07415
H          7.89854      112.23979       22.28253
N         12.13031      108.04459       27.39963
C         12.25799      106.69099       27.94092
C         11.74625      106.60852       29.37602
O         11.75468      105.51491       29.92884
C         13.73907      106.27650       27.90166
C         14.31929      106.27526       26.48334
C         15.80635      106.07788       26.52311
O         16.60793      106.97158       27.12103
O         16.30833      105.11530       25.99014
H         12.68588      108.77985       27.83683
H         11.66426      105.96730       27.34282
H         13.88133      105.26645       28.34654
H         14.28934      106.99748       28.52261
H         14.12630      107.23821       25.96945
H         13.82928      105.46564       25.89974
N         11.28583      107.69792       30.05188
C         10.78912      107.62620       31.40687
H          9.90689      106.95420       31.45011
H         11.58264      107.25179       32.08561
H         10.48106      108.63860       31.74787
H         11.28261      108.62102       29.61067
Ca        19.19598      105.91480       26.43009
O         17.90860      107.58297       24.28410
H         17.95384      108.34023       23.64839
H         17.86787      106.77581       23.71193
O         20.02795      109.15867       25.90209
H         20.76006      108.64684       26.32370
H         20.08917      110.05411       26.31877

Ca 1.0



