%chk=holoCaM-CaMKII.loop2.water0.frame128.chk
%nprocshared=20
%mem=10GB
%nosave
#b3lyp/svp scf=(tight,noincore,xqc) Test 
#IOP(5/87=12) Density=Current Pop=(MK,readradii) iop(6/33=2) iop(6/42=6)

holoCaM-CaMKII.loop2.water0.frame128 

   -2  1 
C         37.22330       61.11152       75.53942
C         36.87690       62.07326       74.44484
O         37.55671       62.08060       73.42882
H         38.24980       61.31938       75.90390
H         36.51708       61.19911       76.39204
H         37.17193       60.07479       75.14575
N         35.80974       62.90783       74.57666
C         35.38972       63.82407       73.52808
C         36.47448       64.85818       73.22999
O         36.71419       65.75164       74.02901
C         34.03559       64.44202       73.91884
C         33.53934       65.47944       72.97324
O         33.23953       66.68835       73.46575
O         33.37926       65.24206       71.78699
H         35.24987       62.85211       75.44194
H         35.21504       63.22158       72.61824
H         34.12026       64.91230       74.92309
H         33.27948       63.62886       73.98146
N         37.20649       64.73345       72.08669
C         38.29136       65.61525       71.67434
C         37.77193       66.97867       71.24270
O         38.31600       67.98172       71.68107
C         39.07523       64.95954       70.52572
H         37.01990       63.91432       71.49689
H         39.02382       65.72400       72.50547
H         39.47437       63.97690       70.86562
H         38.43465       64.78778       69.63557
H         39.94168       65.59200       70.23685
N         36.71906       67.08829       70.37898
C         36.18533       68.36813       69.90449
C         35.72198       69.28326       71.01699
O         35.84657       70.49247       70.87588
C         34.95222       68.16398       68.98759
C         35.31729       67.68050       67.61800
O         34.73830       66.60993       67.05097
O         36.10158       68.33290       66.94959
H         36.26537       66.21968       70.05583
H         36.96566       68.91376       69.32881
H         34.47213       69.15355       68.81302
H         34.19732       67.51182       69.48026
N         35.05331       68.78723       72.08269
C         34.30029       69.61950       72.99955
C         33.00531       70.05207       72.34088
O         32.66805       71.22622       72.37634
H         35.00662       67.76768       72.20224
H         34.90869       70.46406       73.39306
H         34.00643       69.00062       73.87033
N         32.22396       69.11314       71.72706
C         30.90249       69.35403       71.15931
C         29.84558       68.44607       71.79911
O         28.70880       68.47213       71.34726
C         30.91282       69.18303       69.61822
C         31.23695       67.80941       69.07666
N         31.10910       67.56900       67.75175
O         31.60193       66.91025       69.81397
H         32.58654       68.15443       71.66607
H         30.58945       70.40522       71.34296
H         31.62341       69.91068       69.17110
H         29.89521       69.44575       69.25448
H         30.78871       68.30981       67.11175
H         31.30739       66.63531       67.36491
N         30.12256       67.64961       72.87566
C         29.12032       66.81416       73.51679
C         28.75653       65.56099       72.74447
O         27.84064       64.88077       73.18632
H         31.04465       67.69249       73.32300
H         28.21612       67.42734       73.71640
H         29.50888       66.46617       74.49956
N         29.46187       65.13307       71.65510
C         29.18932       63.86324       70.98188
C         30.32298       62.89305       71.24383
O         31.39012       63.31962       71.66443
C         29.06086       64.04717       69.44362
C         27.98730       65.05689       69.04011
O         30.29614       64.46379       68.91476
H         30.27443       65.67619       71.34439
H         28.25470       63.41290       71.38184
H         28.78826       63.05396       69.01120
H         30.34782       64.12490       67.98276
H         28.23872       66.06773       69.42559
H         27.93839       65.11408       67.93000
H         26.99445       64.74563       69.42264
N         30.17481       61.56733       70.97180
C         31.29686       60.63786       70.96315
C         31.33177       60.00911       69.59107
O         30.34188       59.42037       69.17401
C         31.24742       59.56346       72.08356
C         31.07630       60.24436       73.46623
C         32.56001       58.74061       72.03218
C         31.15643       59.27950       74.65239
H         29.24383       61.21783       70.69244
H         32.24288       61.19174       71.13795
H         30.38783       58.87730       71.91700
H         30.07923       60.73536       73.48952
H         31.85347       61.02667       73.61097
H         32.55620       57.91275       72.76755
H         32.69983       58.26737       71.04007
H         33.43788       59.39416       72.23409
H         30.94028       59.82907       75.59198
H         30.42584       58.45191       74.53870
H         32.18010       58.86070       74.75117
N         32.45473       60.08441       68.83787
C         32.55681       59.54849       67.49033
C         33.30157       58.23456       67.53904
O         33.72864       57.84155       68.61653
C         33.31203       60.56322       66.62201
C         32.79418       61.95629       66.81901
O         33.58826       62.81297       67.48347
O         31.68720       62.29523       66.43321
H         33.29079       60.52001       69.24521
H         31.54305       59.36707       67.07021
H         33.31812       60.28403       65.54725
H         34.36765       60.57517       66.97779
N         33.47539       57.47047       66.42655
C         34.17042       56.19285       66.49209
C         35.63236       56.36071       66.89893
O         36.04748       55.62436       67.77897
C         34.02093       55.35827       65.20775
C         34.70349       54.01786       65.38772
C         35.77734       53.65654       64.55922
C         34.29949       53.13407       66.41007
C         36.44093       52.44174       64.75511
C         34.97016       51.92506       66.60551
C         36.04109       51.57934       65.77962
H         33.07175       57.78664       65.53057
H         33.66457       55.59561       67.28281
H         34.44528       55.89935       64.34124
H         32.94140       55.19201       65.00072
H         36.10902       54.31984       63.77057
H         33.47647       53.38077       67.06861
H         37.27161       52.17287       64.11685
H         34.66228       51.25955       67.40221
H         36.56194       50.64396       65.93536
N         36.48124       57.28548       66.34508
C         37.83425       57.52195       66.83592
C         37.87308       57.74020       68.34314
O         38.65114       57.09015       69.02762
C         38.26234       58.80927       66.10776
C         37.52434       58.68477       64.79768
C         36.15750       58.18851       65.25995
H         38.47950       56.66697       66.53357
H         37.82972       59.70534       66.60793
H         39.36108       58.95570       66.03381
H         37.49538       59.60478       64.17538
H         38.01537       57.87195       64.21524
H         35.53300       59.01461       65.65388
H         35.66528       57.70177       64.39807
N         37.03869       58.65271       68.91821
C         37.03673       58.98679       70.34352
C         36.56302       57.83280       71.22249
O         36.77589       57.89115       72.42516
C         36.10396       60.19187       70.59226
C         36.54442       61.44994       69.81409
C         35.53251       62.56049       69.86302
O         35.76761       63.60814       69.28363
O         34.36020       62.41586       70.50712
H         36.38690       59.14865       68.29257
H         38.07466       59.26240       70.63519
H         36.05919       60.43928       71.67584
H         35.09135       59.88176       70.27167
H         36.69050       61.22810       68.73953
H         37.51360       61.80265       70.22678
N         35.85603       56.79116       70.70426
C         35.34119       55.68066       71.47690
H         34.23339       55.66128       71.39184
H         35.74231       54.73152       71.06239
H         35.61476       55.74596       72.54932
H         35.63204       56.79275       69.71066
Ca        33.37997       65.00695       67.81579

Ca 1.0



