%chk=holoCaM-CaMKII.loop2.water1.frame191.chk
%nprocshared=20
%mem=10GB
%nosave
#b3lyp/svp scf=(tight,noincore,xqc) Test 
#IOP(5/87=12) Density=Current Pop=(MK,readradii) iop(6/33=2) iop(6/42=6)

holoCaM-CaMKII.loop2.water1.frame191 

   -2  1 
C         13.71716       70.17339        6.97387
C         12.62741       70.95887        6.30965
O         11.58400       70.39338        6.01455
H         14.60695       70.80711        7.17517
H         13.34582       69.77001        7.93877
H         14.02241       69.33470        6.31496
N         12.79353       72.28502        6.05608
C         11.76242       73.09838        5.43260
C         11.52469       72.64156        4.00531
O         12.46951       72.62967        3.22776
C         12.17646       74.58277        5.46556
C         11.10715       75.52429        4.98733
O         11.35384       76.83715        4.99683
O         10.01318       75.13115        4.62483
H         13.67559       72.73650        6.34558
H         10.84263       73.00112        6.03763
H         13.09248       74.73507        4.85460
H         12.40790       74.86424        6.51642
N         10.27549       72.29036        3.58242
C          9.99338       71.87490        2.21546
C          9.44095       73.01678        1.38382
O          9.60139       72.96734        0.17160
C          9.05696       70.66512        2.20333
H          9.48857       72.37045        4.23907
H         10.94335       71.57017        1.72348
H          8.08249       70.92745        2.67063
H          8.87260       70.32612        1.16169
H          9.51011       69.82717        2.77449
N          8.80024       74.08798        1.93961
C          8.37965       75.22859        1.13074
C          9.57413       76.10123        0.73765
O          9.38325       77.02269       -0.04494
C          7.39861       76.14116        1.89450
C          6.22669       75.41091        2.49840
O          5.46424       74.77060        1.79361
O          6.01610       75.47734        3.82992
H          8.59002       74.08457        2.94549
H          7.84854       74.83998        0.23371
H          7.01847       76.93369        1.21454
H          7.96773       76.64217        2.69320
N         10.81143       75.93921        1.30742
C         11.92687       76.84094        1.05625
C         11.71348       78.25552        1.59151
O         12.56030       79.09533        1.32163
H         10.98693       75.16356        1.96030
H         12.10699       76.87848       -0.04103
H         12.84560       76.43913        1.53592
N         10.60927       78.61223        2.31852
C         10.29387       80.00294        2.65265
C         11.17861       80.62400        3.73350
O         11.08257       81.82706        3.93223
C          8.78221       80.13841        2.97660
C          8.29407       79.64761        4.35759
N          8.30401       80.70141        5.36319
O          8.95740       78.51033        4.83061
H          9.90503       77.89698        2.52881
H         10.44062       80.57750        1.70952
H          8.23000       79.57516        2.19153
H          8.46403       81.19787        2.86779
H          9.28277       80.94158        5.62905
H          7.80706       80.34059        6.20792
N         12.04048       79.87658        4.48287
C         12.93508       80.41588        5.49677
C         12.68184       79.89771        6.90981
O         13.55226       80.10506        7.74131
H         12.10717       78.87278        4.30695
H         12.90924       81.52598        5.53475
H         13.96506       80.12377        5.19854
N         11.50901       79.30055        7.28850
C         11.23007       78.86904        8.67082
C         10.77377       77.41178        8.71380
O         10.65493       76.80261        7.66468
C         10.18333       79.81266        9.31060
C         10.75435       81.22611        9.48382
O          9.03126       79.85947        8.51433
H         10.75562       79.20729        6.59426
H         12.15006       78.92130        9.29235
H          9.92372       79.43145       10.32364
H          8.33783       80.34376        9.03456
H         11.65858       81.19332       10.12885
H         11.02197       81.67209        8.50341
H         10.00351       81.87977        9.97597
N         10.52017       76.77855        9.90790
C         10.15011       75.36252        9.98884
C          8.76221       75.23126       10.61129
O          8.60209       75.56296       11.77758
C         11.17234       74.54510       10.85052
C         12.64870       74.94477       10.59654
C         10.95394       73.03440       10.61000
C         13.61891       74.27910       11.58272
H         10.61740       77.30410       10.78820
H         10.14344       74.93090        8.96488
H         10.98198       74.78017       11.92157
H         12.75664       76.03740       10.76657
H         12.94975       74.72226        9.55110
H         11.19758       72.77623        9.55530
H         11.58380       72.41458       11.27758
H          9.90206       72.74636       10.80413
H         14.64346       74.67677       11.42862
H         13.31659       74.50189       12.63019
H         13.65918       73.18073       11.44425
N          7.70552       74.76089        9.88973
C          6.37311       74.57240       10.46519
C          6.34334       73.36922       11.40504
O          7.33166       72.65625       11.49946
C          5.33828       74.33981        9.34306
C          5.23808       75.50149        8.40352
O          5.48536       75.35881        7.21665
O          4.82917       76.69877        8.86331
H          7.84724       74.56284        8.89371
H          6.08625       75.49303       11.02016
H          4.32963       74.21764        9.78029
H          5.60766       73.41919        8.77846
N          5.22035       73.07532       12.12499
C          5.07461       71.87379       12.94609
C          5.06525       70.61071       12.07848
O          5.84620       69.72688       12.38957
C          3.83789       71.96569       13.86790
C          3.58067       70.66434       14.59691
C          2.37491       69.97493       14.38052
C          4.53616       70.11448       15.47207
C          2.12971       68.75883       15.02197
C          4.28607       68.89498       16.11142
C          3.08439       68.21801       15.88578
H          4.42828       73.73501       12.07873
H          5.94274       71.80682       13.64202
H          2.94224       72.24684       13.29113
H          3.99468       72.78396       14.60389
H          1.62632       70.37405       13.70749
H          5.47483       70.62157       15.65519
H          1.19983       68.23442       14.84463
H          5.02502       68.47168       16.77964
H          2.89264       67.27359       16.37836
N          4.24314       70.42046       10.99253
C          4.34904       69.27275       10.09524
C          5.77478       69.04311        9.61203
O          6.27123       67.92993        9.71777
C          3.44553       69.65496        8.90946
C          2.37873       70.47325        9.58940
C          3.21039       71.32689       10.53843
H          3.95004       68.37329       10.61536
H          3.97307       70.35948        8.22647
H          3.08200       68.79577        8.30676
H          1.71330       71.05325        8.91471
H          1.75541       69.77648       10.19636
H          3.68664       72.16801       10.01025
H          2.52693       71.67873       11.32670
N          6.49780       70.07720        9.09210
C          7.87167       69.95575        8.59961
C          8.84242       69.52856        9.69178
O          9.87813       68.96312        9.37116
C          8.34218       71.29892        7.99926
C          7.51790       71.67469        6.75382
C          7.84066       73.03683        6.21545
O          7.26229       73.43331        5.21915
O          8.74129       73.83562        6.81424
H          6.03993       71.00010        9.05299
H          7.89121       69.17953        7.80208
H          9.41256       71.23548        7.70233
H          8.24470       72.08508        8.78064
H          6.43372       71.67568        6.98251
H          7.70889       70.91790        5.96221
N          8.58433       69.78213       11.00069
C          9.45243       69.36353       12.07710
H         10.45439       69.82527       11.96270
H          9.01985       69.68323       13.05072
H          9.54097       68.25653       12.08128
H          7.74115       70.29972       11.24495
Ca         7.34307       76.91646        4.95020
O          7.17416       77.93948        7.79918
H          6.42872       78.13878        7.17919
H          6.88959       78.34155        8.65804

Ca 1.0



