%chk=holoCaM.loop2.water2.frame467.chk
%nprocshared=20
%mem=10GB
%nosave
#b3lyp/svp scf=(tight,noincore,xqc) Test 
#IOP(5/87=12) Density=Current Pop=(MK,readradii) iop(6/33=2) iop(6/42=6)

holoCaM.loop2.water2.frame467 

   -2  1 
C         13.83922       84.36310       68.81388
C         14.58084       85.35613       67.97213
O         15.50197       85.98013       68.48056
H         13.04021       83.85603       68.23429
H         14.55095       83.59289       69.18137
H         13.38272       84.88045       69.68245
N         14.26089       85.53635       66.65842
C         15.02324       86.43212       65.80154
C         14.82763       87.87866       66.24098
O         13.72036       88.38712       66.12797
C         14.62655       86.22892       64.32187
C         15.61168       86.84850       63.37509
O         15.47678       86.68833       62.17417
O         16.70915       87.46245       63.85582
H         13.50312       84.96811       66.24870
H         16.08560       86.12415       65.90519
H         13.59574       86.59932       64.13220
H         14.64685       85.13753       64.10326
N         15.84799       88.57630       66.82114
C         15.66294       89.90627       67.40059
C         15.63749       91.03434       66.37925
O         15.32714       92.14997       66.77456
C         16.77320       90.19450       68.41534
H         16.74087       88.08697       66.97590
H         14.70166       89.90325       67.96236
H         16.60164       91.17401       68.91149
H         16.78166       89.40642       69.19766
H         17.76318       90.21359       67.91054
N         15.98178       90.84685       65.07360
C         15.96803       91.92010       64.08010
C         14.94128       91.65770       62.98637
O         14.78447       92.51558       62.12815
C         17.39025       92.20926       63.53292
C         18.14703       91.01758       63.02502
O         18.53633       90.05976       63.88552
O         18.50613       90.96398       61.86049
H         16.26271       89.90734       64.76393
H         15.63730       92.87571       64.54176
H         18.00767       92.64510       64.34744
H         17.31656       92.97734       62.73120
N         14.15347       90.54152       62.98109
C         13.07572       90.33132       62.03026
C         13.57583       90.30612       60.61125
O         13.09697       91.08234       59.79684
H         14.27542       89.81440       63.69872
H         12.31162       91.13025       62.15469
H         12.58846       89.35659       62.25128
N         14.55884       89.43751       60.25541
C         15.10808       89.33707       58.90613
C         14.98975       87.91716       58.35037
O         15.45854       87.68140       57.24566
C         16.56659       89.83617       58.90084
C         17.51910       88.91659       59.60961
N         18.59984       88.41070       58.97388
O         17.32080       88.63505       60.77523
H         14.94606       88.83659       60.99415
H         14.55609       90.01783       58.22190
H         16.60162       90.83667       59.38657
H         16.90129       89.96469       57.84972
H         18.79383       88.64053       57.98861
H         19.25652       87.79922       59.47792
N         14.34660       86.92940       59.04208
C         14.12742       85.59201       58.52072
C         15.26396       84.61270       58.75459
O         15.05535       83.45247       58.42513
H         13.87277       87.15042       59.92822
H         13.83747       85.63752       57.44770
H         13.25518       85.16669       59.06367
N         16.46791       84.95538       59.31128
C         17.52147       83.96542       59.58756
C         17.94927       84.01713       61.05562
O         17.47087       84.88496       61.77206
C         18.72749       84.18119       58.64538
C         18.30310       84.16331       57.17092
O         19.34852       85.40292       58.93185
H         16.65594       85.94381       59.53795
H         17.13691       82.93952       59.39510
H         19.44507       83.34633       58.82102
H         20.27024       85.35049       58.56594
H         19.19638       84.27203       56.52067
H         17.79492       83.20848       56.92119
H         17.61498       85.00838       56.95094
N         18.82774       83.10868       61.58685
C         19.24033       83.13031       62.99576
C         20.75629       83.17019       63.17298
O         21.45682       82.28349       62.70490
C         18.62639       81.95454       63.81553
C         19.01925       80.55055       63.28165
C         17.09995       82.13124       63.91126
C         18.51601       79.40731       64.15929
H         19.18452       82.35251       60.98289
H         18.84577       84.04189       63.48225
H         19.01767       82.05003       64.85498
H         20.12043       80.44893       63.27251
H         18.64247       80.40475       62.24822
H         16.85636       83.13649       64.31977
H         16.62357       82.02134       62.91555
H         16.65672       81.39785       64.61405
H         18.88612       79.54471       65.19022
H         17.41016       79.35223       64.16977
H         18.90356       78.44191       63.77236
N         21.32232       84.16197       63.91895
C         22.72725       84.17714       64.33176
C         22.94929       83.05894       65.37823
O         21.98958       82.39331       65.73259
C         23.02177       85.58855       64.92046
C         24.46076       86.01284       65.07158
O         24.72750       87.21243       65.62199
O         25.38178       85.34368       64.63617
H         20.71333       84.92181       64.25445
H         23.35799       84.03416       63.42667
H         22.49442       85.68190       65.89493
H         22.59253       86.34969       64.23236
N         24.16987       82.79718       65.92754
C         24.40945       81.79709       66.97344
C         23.62569       82.07355       68.26375
O         22.92179       81.16588       68.68488
C         25.92718       81.69135       67.25855
C         26.27198       80.76671       68.40752
C         25.91803       79.40538       68.38503
C         26.96571       81.27337       69.52188
C         26.25186       78.57251       69.46023
C         27.29971       80.43750       70.59014
C         26.94298       79.08813       70.56037
H         24.98026       83.31962       65.58819
H         24.09054       80.80091       66.59051
H         26.32909       82.70149       67.47045
H         26.43702       81.33100       66.33897
H         25.38477       78.98791       67.54094
H         27.25214       82.31673       69.56512
H         25.97675       77.52581       69.44167
H         27.83647       80.83759       71.44087
H         27.20344       78.44314       71.38992
N         23.68570       83.24635       68.97434
C         22.98614       83.45964       70.23835
C         21.47852       83.40001       70.07062
O         20.82262       82.83273       70.93347
C         23.51364       84.81425       70.72225
C         23.81839       85.53975       69.43397
C         24.43232       84.42736       68.58627
H         23.27293       82.70883       71.00971
H         22.86857       85.34647       71.45390
H         24.50191       84.63450       71.20551
H         22.84978       85.84763       68.98673
H         24.45423       86.44467       69.53283
H         24.30680       84.70809       67.52596
H         25.50121       84.27197       68.84122
N         20.86872       83.86887       68.94679
C         19.44022       83.70339       68.68652
C         19.08701       82.22626       68.75414
O         18.17621       81.86935       69.48814
C         19.06749       84.31843       67.32199
C         19.27903       85.84926       67.33713
C         18.94766       86.50962       66.03465
O         18.53385       85.86106       65.09051
O         19.11248       87.83957       65.90581
H         21.45590       84.29075       68.21458
H         18.84537       84.23887       69.46080
H         17.99419       84.11478       67.10837
H         19.68030       83.85330       66.51853
H         20.33663       86.09220       67.56194
H         18.63831       86.30015       68.12569
N         19.84634       81.30525       68.09894
C         19.68203       79.87348       68.24601
H         20.59856       79.45160       68.71118
H         18.81292       79.60699       68.88117
H         19.55763       79.40320       67.25663
H         20.63096       81.62879       67.52405
Ca        18.66377       87.55869       62.74044
O         20.96920       86.12938       61.77247
H         21.60396       86.12309       61.01509
H         20.12004       85.79948       61.38869
O         21.32397       88.74012       63.18024
H         21.83976       88.71060       62.33566
H         21.75124       89.45753       63.71085

Ca 1.0



