%chk=holoCaM.loop3.water2.frame39.chk
%nprocshared=20
%mem=10GB
%nosave
#b3lyp/svp scf=(tight,noincore,xqc) Test 
#IOP(5/87=12) Density=Current Pop=(MK,readradii) iop(6/33=2) iop(6/42=6)

holoCaM.loop3.water2.frame39 

   0  1 
C          0.22551       -6.22857        9.72792
C         -0.70455       -5.78362       10.80923
O         -1.73561       -6.41226       11.00604
H          1.20441       -6.49502       10.17616
H         -0.18770       -7.11339        9.19905
H          0.36366       -5.40514        8.99580
N         -0.41594       -4.66750       11.53273
C         -1.29951       -4.15634       12.56322
C         -2.06828       -3.00019       11.96895
O         -1.47834       -1.97444       11.65700
C         -0.47773       -3.80108       13.81419
C         -1.29847       -3.34465       14.97697
O         -2.50191       -3.18727       14.88529
O         -0.69068       -3.12828       16.15019
H          0.42605       -4.12119       11.29072
H         -2.02620       -4.94572       12.85871
H          0.27025       -3.01231       13.57718
H          0.06775       -4.71303       14.13702
N         -3.39315       -3.15680       11.68347
C         -4.14788       -2.18011       10.90982
C         -4.66986       -1.03767       11.76881
O         -5.19533       -0.08862       11.20399
C         -5.29505       -2.87711       10.13752
C         -4.82797       -4.02190        9.20373
C         -3.83872       -3.55990        8.12075
C         -3.46950       -4.70478        7.16700
N         -2.52009       -4.24824        6.15112
H         -3.83479       -4.06473       11.89617
H         -3.47130       -1.72727       10.15482
H         -5.83413       -2.12348        9.52347
H         -6.01815       -3.30338       10.86802
H         -5.73084       -4.44235        8.70894
H         -4.36176       -4.83923        9.79511
H         -2.90357       -3.19618        8.59538
H         -4.29674       -2.73359        7.53544
H         -4.38850       -5.08235        6.66601
H         -3.01356       -5.54129        7.74286
H         -2.93561       -3.46588        5.59475
H         -1.63506       -3.92479        6.60564
H         -2.29776       -5.04034        5.50590
N         -4.56356       -1.05239       13.13010
C         -4.99121        0.04594       13.99280
C         -3.83768        0.59652       14.83840
O         -4.07096        1.54058       15.58077
C         -6.20276       -0.37480       14.85535
C         -5.96551       -1.56335       15.73673
O         -5.76528       -2.66028       15.24409
O         -6.05219       -1.43852       17.07332
H         -4.16400       -1.88052       13.58510
H         -5.34937        0.89963       13.37728
H         -7.05997       -0.61630       14.18975
H         -6.50516        0.48920       15.48589
N         -2.56086        0.11281       14.74476
C         -1.42250        0.70858       15.43464
C         -1.39495        0.54789       16.94594
O         -0.45946        1.05799       17.54677
H         -2.34755       -0.64955       14.08856
H         -1.37927        1.78884       15.17772
H         -0.49221        0.23489       15.05086
N         -2.34417       -0.14531       17.63805
C         -2.32065       -0.30134       19.09854
C         -1.13674       -1.12160       19.63589
O         -1.01036       -1.21296       20.84746
C         -3.67215       -0.89250       19.59015
C         -4.01499       -2.33459       19.12899
N         -3.93576       -3.28501       20.22907
O         -3.17806       -2.73884       18.08585
H         -3.13822       -0.53610       17.11454
H         -2.24863        0.72005       19.53577
H         -4.47482       -0.22703       19.20898
H         -3.72783       -0.82760       20.69998
H         -4.64439       -3.00669       20.94667
H         -4.24619       -4.21219       19.86335
N         -0.22670       -1.72374       18.81461
C          0.93654       -2.46963       19.27604
C          0.70089       -3.96128       19.47741
O          1.67430       -4.63976       19.77687
H         -0.29201       -1.57111       17.80731
H          1.35790       -2.00741       20.19621
H          1.72366       -2.37725       18.49593
N         -0.53056       -4.54897       19.36931
C         -0.77050       -5.97334       19.63120
C         -1.56053       -6.62422       18.50123
O         -2.41556       -5.96223       17.93729
C         -1.56870       -6.16726       20.94170
C         -0.93148       -5.48780       22.13448
C         -0.99228       -4.09104       22.26064
C         -0.29266       -6.23207       23.13948
C         -0.41211       -3.44354       23.35191
C          0.29181       -5.58335       24.23477
C          0.23526       -4.18505       24.34181
O          0.79267       -3.54497       25.38928
H         -1.34431       -3.95651       19.16715
H          0.19087       -6.51637       19.77116
H         -1.63038       -7.26369       21.12143
H         -2.60974       -5.79211       20.84347
H         -1.50216       -3.50493       21.51518
H         -0.23714       -7.31085       23.07207
H         -0.46939       -2.36459       23.42829
H          0.78815       -6.16731       24.99884
H          1.25030       -4.01793       26.09838
N         -1.39304       -7.94095       18.17133
C         -2.20830       -8.63520       17.16587
C         -2.88678       -9.84886       17.79317
O         -2.18890      -10.75992       18.22011
C         -1.32288       -9.07177       15.95660
C         -0.75538       -7.82183       15.23720
C         -2.11733       -9.95770       14.97063
C          0.21810       -8.15634       14.10381
H         -0.66395       -8.48249       18.66152
H         -3.00233       -7.96287       16.76998
H         -0.47548       -9.68033       16.34509
H         -0.19688       -7.20298       15.97067
H         -1.58935       -7.20850       14.82899
H         -2.99833       -9.41700       14.56974
H         -1.48895      -10.31120       14.13166
H         -2.45675      -10.88239       15.47032
H          0.61986       -7.21656       13.67253
H          1.06374       -8.76250       14.49269
H         -0.28053       -8.70498       13.28001
N         -4.24955       -9.94909       17.84396
C         -4.93015      -11.15776       18.31335
C         -4.93337      -12.23998       17.23381
O         -4.52786      -11.97577       16.11277
C         -6.37351      -10.84082       18.75463
O         -7.16041      -10.40842       17.67658
H         -4.81521       -9.14694       17.52892
H         -4.40066      -11.53097       19.21757
H         -6.36479      -10.08086       19.57044
H         -6.85087      -11.74524       19.18793
H         -7.15897       -9.41643       17.68597
N         -5.39991      -13.49191       17.50708
C         -5.47678      -14.56188       16.51069
C         -6.42691      -14.20106       15.38419
O         -6.09044      -14.43124       14.23172
C         -5.93429      -15.86972       17.15926
H         -5.71078      -13.69408       18.46955
H         -4.46350      -14.75835       16.09134
H         -6.94535      -15.76335       17.60430
H         -5.95576      -16.68056       16.39811
H         -5.21431      -16.16364       17.95276
N         -7.62844      -13.61321       15.64847
C         -8.55431      -13.17108       14.60801
C         -7.88689      -12.15274       13.69368
O         -7.84691      -12.35837       12.48901
C         -9.80406      -12.55041       15.25185
H         -7.87684      -13.44206       16.63561
H         -8.88549      -14.04906       14.01016
H        -10.30719      -13.29847       15.90107
H         -9.53936      -11.67132       15.87861
H        -10.52241      -12.22560       14.46961
N         -7.32116      -11.03304       14.22400
C         -6.65069       -9.98206       13.45264
C         -5.42075      -10.48341       12.69367
O         -4.92278       -9.75011       11.85108
C         -6.28098       -8.85910       14.44641
C         -5.54522       -7.61546       13.91993
C         -5.31467       -6.63673       15.05163
O         -4.58405       -5.52727       14.86237
O         -5.75109       -6.85933       16.16972
H         -7.38881      -10.92217       15.24527
H         -7.37773       -9.58925       12.70753
H         -5.63858       -9.30956       15.23584
H         -7.23288       -8.52061       14.91424
H         -6.12535       -7.12221       13.11204
H         -4.55391       -7.91418       13.52059
N         -4.87888      -11.71133       12.92750
C         -3.74495      -12.25116       12.20619
H         -2.92102      -12.45981       12.92003
H         -4.04470      -13.20489       11.72129
H         -3.37194      -11.56218       11.42083
H         -5.27113      -12.30194       13.66198
Ca        -4.13234       -4.29647       16.71814
O         -5.19251       -6.48716       18.84453
H         -5.97486       -6.15287       19.34995
H         -4.67111       -7.01207       19.50118
O         -7.04723       -4.27628       17.62794
H         -7.47116       -3.74135       18.34488
H         -7.63091       -4.14644       16.83898

Ca 1.0



