%chk=holoCaM-CaMKII.loop4.water2.frame124.chk
%nprocshared=20
%mem=10GB
%nosave
#b3lyp/svp scf=(tight,noincore,xqc) Test 
#IOP(5/87=12) Density=Current Pop=(MK,readradii) iop(6/33=2) iop(6/42=6)

holoCaM-CaMKII.loop4.water2.frame124 

   -3  1 
C         38.90774       38.41500       75.42438
C         39.62254       37.31970       76.14835
O         40.65687       37.57972       76.74647
H         37.89602       38.54092       75.86565
H         39.45960       39.37397       75.52817
H         38.81596       38.15881       74.35012
N         39.09945       36.06238       76.17619
C         39.70124       35.00802       76.97368
C         41.06519       34.60336       76.41051
O         41.12238       34.05607       75.31776
C         38.76507       33.78371       77.05191
C         39.18783       32.85118       78.14133
O         38.60863       31.79520       78.29655
O         40.13092       33.24093       79.01633
H         38.20646       35.88656       75.68953
H         39.79870       35.42694       78.00195
H         38.74305       33.26262       76.06998
H         37.72862       34.10188       77.29760
N         42.20873       34.89369       77.09246
C         43.54939       34.65948       76.55532
C         43.97283       33.19173       76.69669
O         44.09037       32.52504       75.67801
C         44.58307       35.65045       77.18635
C         44.14685       37.14224       77.06942
C         45.98624       35.45728       76.58626
C         43.86034       37.63164       75.64615
H         42.10083       35.44520       77.94722
H         43.51983       34.89551       75.46883
H         44.67048       35.44205       78.27395
H         44.93527       37.78510       77.51780
H         43.23163       37.31668       77.66729
H         46.70435       36.15529       77.06815
H         46.35275       34.42635       76.77146
H         45.98615       35.63889       75.49240
H         43.00943       37.07696       75.19937
H         43.57291       38.70371       75.67995
H         44.75163       37.52996       74.99623
N         44.27150       32.63166       77.91191
C         44.73721       31.24333       78.06710
C         43.67791       30.19908       77.66948
O         44.02412       29.02753       77.60766
C         45.27589       30.97118       79.50918
C         44.22191       31.13615       80.56784
O         43.01822       31.55313       80.16737
O         44.46582       30.95866       81.75057
H         44.23267       33.23185       78.74368
H         45.60670       31.11336       77.38563
H         46.10713       31.67782       79.72714
H         45.68146       29.93809       79.56216
N         42.39294       30.54176       77.34766
C         41.42814       29.60879       76.78161
C         40.95831       28.50979       77.71143
O         41.15562       27.34940       77.37907
H         42.09411       31.52417       77.41116
H         41.87399       29.16163       75.86500
H         40.52425       30.17185       76.46548
N         40.26518       28.79420       78.85444
C         39.67386       27.75775       79.71088
C         38.15155       27.89575       79.87298
O         37.56442       27.04608       80.52893
C         40.40458       27.71415       81.07141
C         40.28604       28.94345       81.93071
O         40.93906       28.99037       83.10642
O         39.60477       29.89251       81.59118
H         40.14810       29.78368       79.11488
H         39.83489       26.75788       79.25233
H         41.48301       27.53955       80.86927
H         40.02374       26.85284       81.66132
N         37.44583       28.92018       79.30934
C         36.00111       29.08522       79.40284
C         35.59297       30.33824       80.16104
O         34.41455       30.65980       80.14120
H         37.94094       29.62460       78.76012
H         35.50873       28.21971       79.89590
H         35.60547       29.14793       78.36560
N         36.48675       31.05316       80.90747
C         36.12811       32.22070       81.71215
C         37.04215       33.39378       81.41648
O         38.03843       33.23616       80.73754
C         36.24865       31.85615       83.20538
C         35.12899       30.89975       83.64227
C         35.25196       30.45683       85.07992
N         34.27992       29.69308       85.62847
O         36.21942       30.77861       85.75540
H         37.45578       30.72633       80.96574
H         35.08962       32.55109       81.49199
H         36.16586       32.76753       83.83740
H         37.24769       31.39882       83.38347
H         35.11766       29.99242       83.00262
H         34.16135       31.43434       83.52101
H         33.45100       29.42466       85.07782
H         34.34845       29.38000       86.60801
N         36.73661       34.62456       81.91665
C         37.56120       35.81319       81.72995
C         37.92050       36.35420       83.10480
O         37.03232       36.56771       83.91660
C         36.81384       36.85850       80.85844
C         37.64253       38.14585       80.69030
C         36.53087       36.27940       79.45971
H         35.86114       34.73107       82.45037
H         38.49266       35.56944       81.18130
H         35.84793       37.12230       81.34139
H         37.09266       38.87904       80.06246
H         37.83691       38.62558       81.67140
H         38.61416       37.92526       80.19906
H         35.99228       37.02118       78.83269
H         37.48311       36.01790       78.94854
H         35.90351       35.36663       79.52382
N         39.21843       36.62907       83.41341
C         39.67023       37.12825       84.70616
C         39.98580       38.60891       84.57219
O         39.93520       39.12591       83.47200
C         40.85616       36.22842       85.15126
C         41.49900       36.55958       86.47623
N         41.36302       35.73417       87.53886
O         42.18901       37.55952       86.58399
H         39.92794       36.53460       82.67952
H         38.85143       37.05109       85.45340
H         41.65651       36.23230       84.37724
H         40.45902       35.19105       85.20026
H         40.79766       34.87591       87.47590
H         41.81964       35.96207       88.43475
N         40.24322       39.37868       85.66446
C         40.50081       40.81634       85.59062
C         41.70163       41.11516       84.70679
O         41.58948       41.93615       83.80687
C         40.72549       41.37253       87.00979
C         40.92112       42.86799       87.00302
C         39.90124       43.71787       86.54027
C         42.12544       43.42560       87.45982
C         40.08680       45.10209       86.53046
C         42.30828       44.81075       87.45047
C         41.28866       45.65389       86.98469
O         41.45193       46.99164       86.97009
H         40.22118       38.93145       86.59140
H         39.60404       41.31415       85.16021
H         41.60656       40.86324       87.45969
H         39.84199       41.13910       87.64297
H         38.96190       43.31137       86.18694
H         42.92416       42.78935       87.82052
H         39.29424       45.74553       86.16963
H         43.24273       45.22629       87.80486
H         42.26717       47.41262       87.27760
N         42.86147       40.42353       84.87883
C         44.04880       40.54303       84.03440
C         43.67372       40.54401       82.56383
O         44.07988       41.44240       81.83992
C         44.98052       39.33948       84.33803
C         46.27438       39.31397       83.51247
C         47.06474       38.07346       83.82722
O         47.49679       37.84392       85.08219
O         47.31130       37.26260       82.94813
H         42.86827       39.70600       85.61610
H         44.58012       41.49260       84.26657
H         44.42144       38.39713       84.13664
H         45.24547       39.35329       85.41820
H         46.88740       40.21087       83.74095
H         46.03225       39.31466       82.42728
N         42.89659       39.54966       82.06444
C         42.54915       39.42763       80.65421
C         41.74129       40.63905       80.20571
O         42.18460       41.34814       79.31285
C         41.82678       38.08013       80.39562
C         42.72005       36.89611       80.84923
C         42.14045       35.54338       80.58044
O         42.82033       34.69426       80.03636
O         40.92001       35.21217       81.02287
H         42.55441       38.84664       82.73256
H         43.49054       39.39435       80.05960
H         41.60817       37.99247       79.31041
H         40.86554       38.04934       80.94982
H         42.88045       36.93067       81.94196
H         43.71489       36.96716       80.35665
N         40.57292       40.96986       80.81894
C         39.82341       42.16439       80.49477
H         38.92860       42.23701       81.15138
H         40.45203       43.06438       80.66957
H         39.49094       42.13719       79.43712
H         40.21255       40.37340       81.56598
Ca        40.99013       32.14636       80.76239
O         39.75406       32.58563       83.61470
H         40.30461       31.77212       83.49254
H         39.26964       32.42845       84.46338
O         42.80011       33.71719       83.01803
H         42.47561       33.55606       83.93888
H         43.51045       34.39961       83.11920

Ca 1.0



