%chk=holoCaM-CaMKII.loop1.water1.frame119.chk
%nprocshared=20
%mem=10GB
%nosave
#b3lyp/svp scf=(tight,noincore,xqc) Test 
#IOP(5/87=12) Density=Current Pop=(MK,readradii) iop(6/33=2) iop(6/42=6)

holoCaM-CaMKII.loop1.water1.frame119 

   0  1 
C         25.29362       48.77406       56.58460
C         24.67877       49.16246       55.28106
O         23.46121       49.20667       55.17849
H         25.93607       49.60725       56.94179
H         24.50791       48.57540       57.34303
H         25.91232       47.86469       56.44403
N         25.47875       49.50764       54.23861
C         24.93768       49.98052       52.97963
C         24.26853       48.82447       52.23247
O         24.96440       47.89828       51.83804
C         26.06060       50.69669       52.18651
C         25.52066       51.41209       51.00062
O         26.21149       52.18487       50.36137
O         24.25934       51.16568       50.64487
H         26.50120       49.50596       54.38101
H         24.18520       50.76737       53.21997
H         26.86837       49.99846       51.87446
H         26.50104       51.46534       52.85538
N         22.90838       48.78575       52.06201
C         22.21490       47.59430       51.56884
C         22.10272       47.51550       50.05107
O         21.80781       46.42850       49.57534
C         20.81097       47.43509       52.21004
C         20.80197       47.37352       53.75269
C         21.66888       46.23206       54.30610
C         21.56350       46.11447       55.83092
N         22.45354       45.06268       56.32476
H         22.35143       49.54252       52.48235
H         22.81168       46.70604       51.86576
H         20.34804       46.49572       51.83344
H         20.16138       48.28009       51.89106
H         19.74851       47.22337       54.07824
H         21.14930       48.33743       54.17582
H         22.73185       46.42352       54.05220
H         21.35066       45.26948       53.84939
H         20.51394       45.87529       56.11336
H         21.84439       47.08077       56.30551
H         22.21197       44.14577       55.88275
H         23.44757       45.30528       56.10521
H         22.34906       44.97808       57.36126
N         22.28610       48.59411       49.22779
C         22.23123       48.48787       47.76561
C         23.53084       48.90310       47.07775
O         23.58811       48.83884       45.85553
C         20.93565       49.10112       47.17920
C         20.53083       50.56074       47.26153
O         19.46284       50.85583       46.75273
O         21.22216       51.56397       47.83110
H         22.45401       49.51402       49.64579
H         22.13123       47.41482       47.48085
H         20.09929       48.53470       47.64560
H         20.92934       48.84611       46.09610
N         24.65329       49.20452       47.79036
C         25.96968       49.38474       47.19658
C         26.11892       50.62925       46.35367
O         26.51358       50.51824       45.20213
H         24.61684       49.19925       48.81931
H         26.23149       48.48055       46.60162
H         26.71365       49.46606       48.01731
N         25.86922       51.85777       46.88401
C         26.13596       53.11466       46.18704
C         26.95165       54.08548       47.05027
O         27.06092       55.24833       46.68521
C         24.82713       53.71962       45.64225
C         23.75488       53.94731       46.66061
O         23.96191       54.75781       47.70796
O         22.66513       53.42104       46.51612
H         25.48014       51.90746       47.83535
H         26.74517       52.94141       45.27284
H         24.42853       53.02190       44.87208
H         25.05236       54.68030       45.13184
N         27.63525       53.66129       48.15384
C         28.50134       54.51818       48.95100
C         27.78617       55.46768       49.89496
O         28.48815       56.12946       50.64583
H         27.63623       52.65979       48.39094
H         29.20562       55.07000       48.29100
H         29.11434       53.86145       49.60789
N         26.42437       55.57109       49.96402
C         25.74431       56.36967       50.98654
C         24.84339       55.48982       51.83407
O         24.53612       54.36881       51.45797
C         24.93379       57.54192       50.38262
C         25.83783       58.63910       49.80097
O         24.00709       57.08065       49.43126
H         25.84440       55.02985       49.31317
H         26.49024       56.80340       51.68800
H         24.35849       58.03740       51.19548
H         24.47620       57.00959       48.55928
H         25.20880       59.46423       49.40254
H         26.48911       59.05393       50.59974
H         26.47534       58.24336       48.98335
N         24.44241       55.94642       53.05311
C         23.62742       55.18613       53.99152
C         22.45541       56.06386       54.39560
O         22.68621       57.18608       54.82498
C         24.47991       54.79330       55.23686
C         25.74812       54.00645       54.80706
C         23.63273       53.95322       56.21848
C         26.72734       53.74730       55.95423
H         24.78378       56.87000       53.36075
H         23.26687       54.23870       53.53394
H         24.80769       55.72737       55.74456
H         26.31401       54.59797       54.05751
H         25.45717       53.04186       54.33819
H         24.19741       53.70516       57.13806
H         22.73632       54.51345       56.54623
H         23.30168       53.00628       55.73754
H         27.03962       54.71114       56.41077
H         26.29023       53.09401       56.73448
H         27.63148       53.23889       55.55761
N         21.17513       55.60341       54.34034
C         20.03397       56.40062       54.78222
C         19.62813       55.96995       56.17756
O         20.20781       55.03988       56.71191
C         18.85119       56.25952       53.78941
C         19.22028       56.71429       52.37655
O         18.42566       54.92191       53.74691
H         21.01270       54.62422       54.07329
H         20.31478       57.47441       54.85329
H         18.01874       56.90757       54.15073
H         17.45877       54.92656       53.52101
H         19.53952       57.77706       52.38510
H         20.03708       56.08682       51.96097
H         18.33363       56.61651       51.71340
N         18.63874       56.62150       56.84409
C         18.16835       56.20338       58.16276
C         17.61616       54.78809       58.09024
O         17.99041       53.95800       58.90635
C         17.09651       57.17751       58.71180
C         17.69371       58.56554       58.98768
O         16.02320       57.28405       57.81185
H         18.19254       57.42889       56.38440
H         19.01272       56.21561       58.89009
H         16.73445       56.76467       59.68291
H         15.27069       57.69895       58.30869
H         18.52640       58.48443       59.71926
H         18.07905       59.03542       58.05946
H         16.91786       59.23097       59.42134
N         16.75175       54.44143       57.09614
C         16.16828       53.11075       56.94323
C         17.23701       52.03464       56.85564
O         17.17230       51.08405       57.62328
C         15.27577       53.04573       55.68329
C         14.05396       53.97586       55.77936
C         13.17213       53.85274       54.52865
C         11.95607       54.79565       54.55204
N         11.03613       54.50002       55.65250
H         16.51939       55.16336       56.39909
H         15.52588       52.88806       57.82500
H         14.90168       52.00376       55.57041
H         15.87619       53.29928       54.78163
H         14.37340       55.03370       55.88095
H         13.47337       53.69085       56.68114
H         12.82239       52.80332       54.41636
H         13.78400       54.11243       53.63669
H         11.41134       54.67607       53.58929
H         12.29706       55.85242       54.62197
H         10.72910       53.50123       55.60912
H         11.48394       54.69817       56.57497
H         10.19545       55.11533       55.56516
N         18.25397       52.12127       55.95245
C         19.29179       51.09921       55.81162
C         19.98552       50.85997       57.14321
O         19.98371       49.72975       57.61076
C         20.31146       51.48056       54.70892
C         19.64681       51.54112       53.31779
C         20.62932       51.84577       52.22135
O         21.33117       52.99267       52.23041
O         20.76590       51.06982       51.28967
H         18.29155       52.95941       55.35727
H         18.81701       50.14057       55.50152
H         21.10717       50.70568       54.67663
H         20.78969       52.45266       54.95419
H         18.86322       52.32315       53.29449
H         19.16387       50.56172       53.10626
N         20.54882       51.88868       57.83280
C         21.15324       51.74635       59.14210
H         22.20337       52.10168       59.10591
H         20.59000       52.36746       59.87165
H         21.14420       50.69663       59.50309
H         20.51814       52.82955       57.43045
Ca        23.13549       51.79685       48.89265
O         19.81336       53.63733       49.48590
H         19.57822       53.24742       48.60799
H         19.29620       54.47983       49.51926

Ca 1.0



