%chk=holoCaM-CaMKII.loop3.water2.frame227.chk
%nprocshared=20
%mem=10GB
%nosave
#b3lyp/svp scf=(tight,noincore,xqc) Test 
#IOP(5/87=12) Density=Current Pop=(MK,readradii) iop(6/33=2) iop(6/42=6)

holoCaM-CaMKII.loop3.water2.frame227 

   0  1 
C         56.37820       36.62483       38.26779
C         57.51975       36.11780       37.44008
O         57.29912       35.33616       36.52883
H         55.41695       36.17933       37.93403
H         56.54489       36.34962       39.33156
H         56.31803       37.72928       38.18179
N         58.78970       36.49462       37.74501
C         59.97107       36.00215       37.05679
C         60.63437       34.96682       37.93863
O         61.67554       35.20266       38.53600
C         60.88339       37.16618       36.63799
C         62.20386       36.62836       36.15798
O         63.22217       36.96624       36.73149
O         62.26030       35.68900       35.19350
H         58.93448       37.10679       38.56294
H         59.71294       35.46703       36.11748
H         61.06908       37.83996       37.50149
H         60.37476       37.75373       35.84810
N         60.05963       33.74063       38.00274
C         60.61413       32.61393       38.73415
C         61.96426       32.22267       38.14778
O         62.93611       32.17204       38.88851
C         59.62942       31.42300       38.68084
C         58.28661       31.77322       39.35774
C         57.28822       30.61344       39.26860
C         55.95021       30.91884       39.96940
N         55.21600       32.02046       39.33943
H         59.19219       33.60043       37.46314
H         60.74094       32.89013       39.80542
H         60.07778       30.55359       39.20941
H         59.44801       31.13485       37.62168
H         57.83715       32.65620       38.86604
H         58.47092       32.02356       40.42525
H         57.73827       29.72343       39.75890
H         57.09436       30.36451       38.20205
H         56.12977       31.15246       41.04215
H         55.32232       30.00215       39.91986
H         55.72599       32.92531       39.44768
H         55.05663       31.81738       38.32590
H         54.28782       32.12031       39.81051
N         62.09580       31.93993       36.81638
C         63.35212       31.49323       36.20374
C         64.51773       32.47572       36.32604
O         65.63644       32.07973       36.02828
C         63.15025       31.12500       34.71536
C         62.78579       32.30635       33.84847
O         63.52761       32.64320       32.94128
O         61.63618       32.98031       34.04326
H         61.24811       31.99403       36.23410
H         63.65089       30.56708       36.74273
H         62.35775       30.35285       34.62334
H         64.09623       30.68023       34.33276
N         64.35029       33.75650       36.74837
C         65.45209       34.68156       36.94686
C         66.22083       35.00596       35.68357
O         67.43953       34.91225       35.71164
H         63.40701       34.09710       36.97009
H         66.13786       34.28649       37.72727
H         65.05241       35.63095       37.34523
N         65.58605       35.44899       34.55816
C         66.29323       35.97052       33.38913
C         65.92280       37.43375       33.12163
O         66.41993       37.99272       32.15357
C         66.09436       35.07120       32.14599
C         64.72274       35.04849       31.52043
N         64.52401       34.33854       30.38546
O         63.79661       35.67290       32.00958
H         64.55970       35.45935       34.54462
H         67.38914       35.95554       33.57637
H         66.38958       34.03079       32.40580
H         66.79423       35.43147       31.36054
H         65.29694       33.80956       29.95429
H         63.60176       34.32665       29.92719
N         65.09544       38.13235       33.95938
C         64.84993       39.55949       33.84084
C         63.62022       39.93015       33.03685
O         63.35506       41.12104       32.95735
H         64.75057       37.68916       34.81895
H         65.74942       40.07410       33.43776
H         64.69535       39.96323       34.86570
N         62.82319       39.00951       32.41381
C         61.64157       39.38636       31.62562
C         60.35214       38.68804       32.13745
O         60.52071       38.36368       33.46714
C         61.89857       39.00456       30.16097
C         63.09544       39.75929       29.63992
C         63.01771       41.14789       29.44577
C         64.30311       39.09290       29.37292
C         64.12951       41.86044       28.99199
C         65.41815       39.81004       28.92885
C         65.33387       41.19737       28.73634
O         66.40103       41.90246       28.31086
H         63.06966       38.01334       32.46960
H         61.47753       40.48351       31.69434
H         61.01794       39.21686       29.51710
H         62.09108       37.90996       30.12706
H         62.09432       41.67747       29.64571
H         64.38917       38.02410       29.52759
H         64.05495       42.93044       28.84497
H         66.34739       39.28769       28.73991
H         67.25492       41.48455       28.13047
N         59.19751       39.58112       32.04154
C         57.89514       38.93216       32.30954
C         57.11473       38.81140       31.01123
O         56.91364       39.81591       30.34342
C         57.11164       39.77429       33.36641
C         57.84569       39.71865       34.73624
C         55.65525       39.27711       33.52075
C         57.26489       40.65847       35.79564
H         59.20398       40.16346       31.17269
H         58.02397       37.91345       32.74784
H         57.07701       40.82724       33.00923
H         58.90485       40.01933       34.60345
H         57.82906       38.67623       35.12884
H         55.08419       39.91063       34.22724
H         55.10954       39.34562       32.55771
H         55.62863       38.22371       33.87281
H         56.21645       40.40677       36.04954
H         57.86056       40.57113       36.72921
H         57.31842       41.70894       35.43969
N         56.57743       37.61546       30.64067
C         55.73136       37.46099       29.46168
C         54.28591       37.29545       29.89078
O         54.01170       37.29042       31.07607
C         56.21664       36.26892       28.62025
O         56.06557       35.06111       29.32022
H         56.70009       36.80278       31.26223
H         55.77659       38.37215       28.82806
H         57.27664       36.42326       28.31079
H         55.62950       36.19534       27.68160
H         56.93708       34.85908       29.74668
N         53.29508       37.18256       28.96352
C         51.89024       37.00460       29.32325
C         51.68985       35.71296       30.09266
O         51.07948       35.73873       31.15344
C         51.02256       36.98908       28.06174
H         53.55126       37.22584       27.96677
H         51.54842       37.86672       29.93978
H         51.30866       36.15201       27.39077
H         49.95204       36.88121       28.34027
H         51.14338       37.94756       27.51299
N         52.21444       34.54674       29.62196
C         52.07610       33.25376       30.28646
C         52.51528       33.31627       31.73610
O         51.74827       32.92350       32.60340
C         52.90357       32.19677       29.54398
H         52.76520       34.58983       28.74920
H         51.00953       32.93770       30.25330
H         52.55913       32.11465       28.49120
H         53.98138       32.47059       29.54226
H         52.78817       31.20462       30.02978
N         53.72916       33.83300       32.06978
C         54.20298       33.94613       33.44744
C         53.21612       34.74065       34.28744
O         52.74078       34.22327       35.28933
C         55.59847       34.60408       33.48075
C         56.66588       33.70614       32.82987
C         58.01069       34.36978       32.82808
O         58.58870       34.73316       33.98524
O         58.59630       34.56673       31.77691
H         54.32147       34.18881       31.30531
H         54.29355       32.93036       33.89489
H         55.88955       34.77353       34.53682
H         55.55696       35.59067       32.97055
H         56.38809       33.46160       31.78387
H         56.73984       32.75384       33.39769
N         52.83173       35.99010       33.91903
C         51.85609       36.75715       34.65988
H         50.89597       36.19991       34.71026
H         52.22837       36.95753       35.68578
H         51.67218       37.72604       34.14754
H         53.22290       36.40190       33.06840
Ca        61.22566       36.24976       33.34306
O         61.45743       32.90497       30.63721
H         60.56184       32.50255       30.76115
H         61.86856       32.37920       29.90558
O         60.45760       35.82258       29.90334
H         60.69802       36.15208       29.00146
H         59.73916       36.43321       30.20602

Ca 1.0



