%chk=holoCaM-CaMKII.loop4.water2.frame206.chk
%nprocshared=20
%mem=10GB
%nosave
#b3lyp/svp scf=(tight,noincore,xqc) Test 
#IOP(5/87=12) Density=Current Pop=(MK,readradii) iop(6/33=2) iop(6/42=6)

holoCaM-CaMKII.loop4.water2.frame206 

   -3  1 
C         28.80091       63.00869       36.82928
C         29.59875       62.38995       35.71938
O         29.07484       62.24692       34.62567
H         27.89812       62.39394       37.02635
H         29.39262       63.07712       37.76681
H         28.49037       64.03264       36.53393
N         30.88982       62.01276       35.92464
C         31.72417       61.42383       34.88407
C         31.17577       60.06836       34.44681
O         30.80996       59.27499       35.30334
C         33.17662       61.32625       35.37652
C         34.05787       60.83905       34.27335
O         34.73658       59.84418       34.43802
O         34.05548       61.46549       33.08052
H         31.30443       62.17792       36.85576
H         31.73922       62.11927       34.01782
H         33.25382       60.65725       36.26261
H         33.52397       62.34088       35.66977
N         31.09410       59.74474       33.11848
C         30.41708       58.55044       32.61252
C         31.37457       57.52753       31.99485
O         30.95434       56.38351       31.88509
C         29.33742       58.98527       31.56004
C         28.37987       60.08800       32.08219
C         28.52588       57.81009       30.97789
C         27.46827       59.66617       33.23491
H         31.48480       60.40046       32.43048
H         29.91950       58.03003       33.46026
H         29.88590       59.44585       30.70756
H         27.73600       60.43053       31.24238
H         28.97619       60.96526       32.40116
H         27.78776       58.18738       30.23831
H         29.17516       57.10068       30.42857
H         27.98941       57.25615       31.77538
H         26.79022       58.84541       32.92401
H         28.06041       59.34804       34.11599
H         26.83709       60.53091       33.53041
N         32.63164       57.82981       31.53753
C         33.47237       56.82642       30.86532
C         34.77524       56.50699       31.59779
O         35.43322       55.57311       31.15876
C         33.71810       57.18963       29.37745
C         34.36218       58.53043       29.20247
O         35.46844       58.83889       29.89330
O         33.80984       59.39079       28.53741
H         32.98284       58.79376       31.62116
H         32.94098       55.85127       30.83765
H         32.74373       57.19463       28.83883
H         34.35296       56.40737       28.91005
N         35.20097       57.16547       32.72005
C         36.33975       56.69572       33.51200
C         37.54729       57.61613       33.60281
O         38.53227       57.16026       34.16669
H         34.65788       57.96000       33.06764
H         36.72786       55.74318       33.09396
H         35.98575       56.46492       34.53978
N         37.58839       58.88276       33.09287
C         38.81347       59.69455       33.08361
C         38.78431       60.88462       34.04469
O         39.72742       61.66428       34.02896
C         39.18050       60.09251       31.63710
C         38.16763       60.96390       30.95368
O         37.65263       60.59825       29.90992
O         37.85932       62.17161       31.45596
H         36.73881       59.27811       32.67670
H         39.67885       59.09066       33.43452
H         39.32025       59.16145       31.04387
H         40.15134       60.63293       31.64164
N         37.81983       61.01930       34.99750
C         37.89168       62.00840       36.06633
C         37.54707       63.43551       35.68516
O         37.54284       64.26022       36.58916
H         37.08381       60.30599       35.06874
H         38.89676       61.96794       36.54122
H         37.15204       61.71982       36.84499
N         37.19639       63.81133       34.42146
C         36.68656       65.14851       34.10387
C         35.26395       65.03925       33.59913
O         34.78929       63.92958       33.41478
C         37.56753       65.86058       33.06176
C         38.95510       66.20729       33.62033
C         39.76531       67.06714       32.67662
N         40.97476       67.53192       33.06372
O         39.33108       67.36833       31.57336
H         37.21478       63.11246       33.66725
H         36.64179       65.78213       35.01674
H         37.07643       66.82024       32.79065
H         37.65933       65.24303       32.14112
H         39.51738       65.27751       33.85386
H         38.81830       66.78716       34.55862
H         41.35177       67.30255       33.99482
H         41.52813       68.13616       32.43804
N         34.49766       66.15020       33.39222
C         33.11112       66.06444       32.94809
C         32.94935       66.83671       31.65042
O         33.06378       68.05546       31.65206
C         32.14913       66.57025       34.05832
C         30.67951       66.38191       33.64823
C         32.39276       65.82326       35.38186
H         34.89418       67.08240       33.59022
H         32.84260       65.00329       32.75791
H         32.33577       67.65225       34.23889
H         30.45695       65.30509       33.48459
H         30.00548       66.76296       34.44447
H         30.45317       66.94094       32.71932
H         32.22838       64.73144       35.25519
H         33.42986       65.98797       35.74300
H         31.70463       66.19987       36.16839
N         32.70167       66.16889       30.48961
C         32.49675       66.82325       29.19757
C         31.16496       67.57305       29.18768
O         30.41327       67.47128       30.14318
C         32.53709       65.72095       28.10188
C         32.39072       66.18418       26.67488
N         33.26477       67.06051       26.12915
O         31.47773       65.74246       25.99412
H         32.68555       65.13822       30.52565
H         33.33422       67.53333       29.02011
H         31.73709       64.98007       28.31833
H         33.51459       65.19708       28.17515
H         34.04689       67.44046       26.68025
H         33.15224       67.36424       25.15017
N         30.80083       68.34107       28.12335
C         29.48225       68.95436       27.98069
C         28.41252       67.87573       27.90544
O         27.47623       67.91343       28.69188
C         29.45485       69.82309       26.70169
C         28.08930       70.39178       26.38428
C         27.42497       71.24455       27.28285
C         27.46964       70.06631       25.16492
C         26.16229       71.75878       26.96409
C         26.21213       70.58327       24.84800
C         25.55306       71.43208       25.74703
O         24.33890       71.93857       25.45128
H         31.48315       68.47943       27.36656
H         29.27940       69.61953       28.85021
H         29.79947       69.20439       25.84419
H         30.17880       70.65853       26.81831
H         27.88030       71.51128       28.22792
H         27.96016       69.41210       24.45473
H         25.65682       72.41370       27.66274
H         25.75275       70.32309       23.90262
H         23.88830       71.73924       24.61779
N         28.49128       66.88314       26.97104
C         27.47144       65.84525       26.80779
C         27.32153       64.93785       28.02665
O         26.39907       64.13395       28.03399
C         27.75620       64.96911       25.56767
C         27.76405       65.77834       24.26089
C         27.93616       64.87087       23.07756
O         27.02222       63.91473       22.82190
O         28.89526       65.00256       22.33430
H         29.29708       66.89632       26.33345
H         26.49517       66.35547       26.65031
H         26.95226       64.20350       25.49010
H         28.72894       64.44195       25.69238
H         28.58643       66.52416       24.27140
H         26.80157       66.32159       24.15013
N         28.15357       65.01998       29.10098
C         27.93907       64.28213       30.33461
C         27.09711       65.14657       31.25143
O         26.03457       64.70267       31.66414
C         29.29223       63.86041       30.93921
C         30.00036       62.85743       30.00538
C         31.31380       62.35755       30.53290
O         31.93408       61.34710       29.89620
O         31.81942       62.83539       31.53484
H         28.91843       65.70344       29.09982
H         27.36205       63.34721       30.14764
H         29.10928       63.35931       31.91487
H         29.93357       64.75086       31.11664
H         30.17907       63.30379       29.00418
H         29.33277       61.98004       29.87787
N         27.46595       66.42615       31.53734
C         26.63951       67.35404       32.28199
H         25.69176       66.89419       32.63179
H         27.20155       67.73543       33.15794
H         26.37990       68.21092       31.62236
H         28.34996       66.78828       31.16455
Ca        35.07234       60.52639       31.31999
O         34.07269       62.38595       28.28995
H         34.91696       61.92941       28.04742
H         33.40185       62.02248       27.65851
O         36.07712       64.27895       29.56855
H         36.24660       64.00239       30.50342
H         36.96235       64.22635       29.12784

Ca 1.0



