%chk=holoCaM-CaMKII.loop2.water2.frame457.chk
%nprocshared=20
%mem=10GB
%nosave
#b3lyp/svp scf=(tight,noincore,xqc) Test 
#IOP(5/87=12) Density=Current Pop=(MK,readradii) iop(6/33=2) iop(6/42=6)

holoCaM-CaMKII.loop2.water2.frame457 

   -2  1 
C         64.77627       55.72319       55.37062
C         65.89261       56.37827       56.13537
O         67.04430       56.21375       55.76373
H         63.78410       55.97322       55.80480
H         64.78952       56.08323       54.31956
H         64.89978       54.62153       55.38205
N         65.61558       57.17159       57.20453
C         66.62861       57.93022       57.92917
C         67.60442       57.01906       58.67249
O         67.15197       56.18193       59.44124
C         65.93067       58.87391       58.93519
C         66.85200       59.92157       59.48521
O         67.99210       60.02527       59.06759
O         66.39663       60.79935       60.39793
H         64.62566       57.29345       57.47104
H         67.16310       58.56646       57.18881
H         65.48732       58.27832       59.76258
H         65.11054       59.42388       58.42678
N         68.95749       57.15854       58.52226
C         69.94233       56.31890       59.20831
C         70.86126       57.09481       60.16310
O         71.70589       56.45890       60.77913
C         70.78639       55.59845       58.15084
H         69.30796       57.88916       57.88714
H         69.43078       55.54313       59.81837
H         70.13106       54.99670       57.48572
H         71.34383       56.33451       57.53146
H         71.51593       54.91153       58.63131
N         70.77034       58.44537       60.35152
C         71.72850       59.20780       61.16798
C         71.18972       60.54479       61.71245
O         71.94986       61.21730       62.39651
C         73.03935       59.42293       60.36705
C         72.73354       59.87789       58.97373
O         73.06154       59.17973       58.02669
O         71.92106       60.92381       58.76410
H         70.09393       58.96026       59.78244
H         71.98042       58.63253       62.08618
H         73.57998       58.45402       60.29016
H         73.71367       60.13761       60.88496
N         69.90959       60.98401       61.52169
C         69.37792       62.20378       62.11919
C         69.98907       63.50670       61.62672
O         69.61774       64.53860       62.16796
H         69.24055       60.40529       61.01519
H         69.51704       62.13799       63.21996
H         68.28518       62.25849       61.92185
N         70.92590       63.56267       60.63623
C         71.59185       64.80571       60.24424
C         70.66566       65.86860       59.64485
O         71.11999       66.99392       59.49167
C         72.79226       64.51634       59.30692
C         72.45257       63.86794       57.98338
N         73.44111       63.58018       57.10690
O         71.29966       63.58691       57.69860
H         71.22814       62.68918       60.19754
H         72.02062       65.24087       61.17451
H         73.49424       63.83833       59.84007
H         73.32838       65.46787       59.10282
H         74.42298       63.79712       57.32994
H         73.22656       63.13877       56.20257
N         69.38005       65.60045       59.27204
C         68.45293       66.60649       58.76651
C         68.11887       66.44264       57.29351
O         67.28528       67.19633       56.81148
H         69.02682       64.64292       59.35059
H         68.86485       67.63254       58.88472
H         67.52514       66.55391       59.37495
N         68.78999       65.56282       56.49448
C         68.64672       65.50600       55.03943
C         68.42528       64.07853       54.54883
O         68.38116       63.15925       55.35402
C         69.93921       66.09132       54.40390
C         70.10901       67.57303       54.75017
O         71.07530       65.39021       54.84476
H         69.52523       64.98250       56.91035
H         67.78449       66.11865       54.69448
H         69.88579       66.05637       53.29356
H         71.11167       64.54081       54.33282
H         69.23379       68.15284       54.38531
H         70.20994       67.72170       55.84562
H         71.02186       67.97078       54.25885
N         68.34051       63.82694       53.20684
C         68.27277       62.49089       52.62525
C         69.59187       62.23179       51.91472
O         69.90020       62.91115       50.94457
C         67.06360       62.37642       51.64576
C         65.72978       62.53763       52.41653
C         67.09312       61.04074       50.87129
C         64.50093       62.61053       51.50562
H         68.39627       64.61875       52.54954
H         68.15432       61.72601       53.42236
H         67.14985       63.19925       50.90072
H         65.75433       63.48218       53.00021
H         65.60421       61.69315       53.12808
H         67.00481       60.18166       51.56658
H         66.28096       60.98592       50.12081
H         68.03181       60.94163       50.29077
H         64.59545       63.46690       50.80469
H         64.35717       61.67636       50.92708
H         63.59165       62.75762       52.12497
N         70.43409       61.26407       52.37398
C         71.71083       60.94208       51.74176
C         71.47854       60.07427       50.51195
O         70.34199       59.72293       50.23664
C         72.62663       60.19917       52.74193
C         72.94636       61.03803       53.95088
O         71.96555       61.46147       54.76797
O         74.10399       61.32993       54.20488
H         70.16502       60.75013       53.22354
H         72.22996       61.88310       51.45210
H         73.58769       59.95002       52.24720
H         72.14505       59.25288       53.07121
N         72.51732       59.67980       49.72071
C         72.33770       58.79512       48.57313
C         71.83370       57.40502       48.97910
O         70.83148       56.99335       48.40978
C         73.62523       58.67848       47.73003
C         73.38049       57.81476       46.50912
C         72.42411       58.19235       45.54615
C         74.08463       56.61114       46.33572
C         72.17092       57.37543       44.44157
C         73.82924       55.79813       45.22625
C         72.87151       56.17834       44.28217
H         73.46371       60.03009       49.93416
H         71.58040       59.26636       47.90853
H         74.44500       58.26047       48.34588
H         73.94634       59.68892       47.39650
H         71.86606       59.11386       45.65092
H         74.82202       56.29562       47.06297
H         71.42749       57.66953       43.71157
H         74.36988       54.86928       45.10101
H         72.67076       55.54537       43.42757
N         72.43106       56.61205       49.93338
C         71.96622       55.27044       50.28630
C         70.61539       55.24471       51.00026
O         70.19567       54.16299       51.38736
C         73.10248       54.71753       51.15688
C         73.59849       55.95913       51.85420
C         73.60441       56.96711       50.70997
H         71.88270       54.61861       49.38874
H         72.83536       53.86115       51.81271
H         73.92802       54.38798       50.48401
H         72.82086       56.26135       52.59319
H         74.57159       55.85858       52.38062
H         73.56126       57.97004       51.15981
H         74.50744       56.85099       50.07477
N         69.84841       56.36186       51.14753
C         68.50849       56.36361       51.71221
C         67.51986       56.54276       50.57945
O         66.65977       55.69162       50.40120
C         68.37111       57.50375       52.73395
C         69.42604       57.40564       53.83731
C         69.37523       58.56448       54.78281
O         70.34209       58.66506       55.70010
O         68.51697       59.42909       54.70665
H         70.18758       57.26189       50.80072
H         68.28767       55.39975       52.22427
H         67.35080       57.49080       53.17686
H         68.52044       58.47596       52.21687
H         70.43472       57.42233       53.37319
H         69.31805       56.45691       54.40426
N         67.60998       57.61291       49.74127
C         66.72893       57.79277       48.61138
H         65.67949       57.88562       48.95838
H         67.01017       58.71658       48.06113
H         66.82426       56.92895       47.91928
H         68.34298       58.31743       49.88873
Ca        70.60069       60.42691       57.04785
O         67.87499       62.75906       58.18941
H         67.14274       63.21644       58.67405
H         68.51521       62.49190       58.89611
O         66.49364       61.04697       56.29200
H         65.57763       61.10421       56.66142
H         66.36237       60.95888       55.31582

Ca 1.0



