%chk=holoCaM.loop4.water3.frame338.chk
%nprocshared=20
%mem=10GB
%nosave
#b3lyp/svp scf=(tight,noincore,xqc) Test 
#IOP(5/87=12) Density=Current Pop=(MK,readradii) iop(6/33=2) iop(6/42=6)

holoCaM.loop4.water3.frame338 

   -3  1 
C        119.49700       19.09319       10.53836
C        120.51685       18.09643       11.00142
O        120.16357       16.94016       11.16664
H        118.66305       19.14165       11.26854
H        119.93885       20.10487       10.42645
H        119.09630       18.77385        9.55205
N        121.81779       18.46087       11.18357
C        122.86705       17.51572       11.54387
C        123.70534       18.07544       12.69098
O        124.20591       19.18340       12.55218
C        123.74058       17.28618       10.29628
C        124.65704       16.10434       10.42671
O        125.43978       15.84859        9.52662
O        124.56828       15.27592       11.48459
H        122.09143       19.43323       10.97387
H        122.41969       16.53624       11.82243
H        124.32069       18.20822       10.07434
H        123.08639       17.07293        9.42242
N        123.92256       17.36563       13.83908
C        124.70224       17.87806       14.97031
C        126.00252       17.10061       15.20613
O        126.79321       17.54546       16.02633
C        123.83339       17.91148       16.27300
C        123.51101       16.48711       16.81441
C        122.54748       18.72437       16.03055
C        122.79196       16.48556       18.16734
H        123.51667       16.43198       13.91282
H        125.01543       18.92123       14.74942
H        124.42951       18.43577       17.05289
H        124.46106       15.93317       16.96861
H        122.89537       15.92154       16.08878
H        121.97124       18.85945       16.96756
H        122.79929       19.73587       15.65019
H        121.89396       18.21575       15.28923
H        122.66333       15.43911       18.51761
H        123.39152       17.03453       18.92419
H        121.78263       16.93747       18.09436
N        126.26242       15.91055       14.58763
C        127.42422       15.06845       14.89949
C        128.12645       14.47780       13.65867
O        129.15880       13.84634       13.83894
C        126.97025       13.92557       15.84068
C        125.72502       13.27296       15.31576
O        125.66016       12.96789       14.01498
O        124.72774       13.17366       16.01243
H        125.53794       15.51655       13.97694
H        128.19649       15.65632       15.44230
H        126.74396       14.33024       16.85137
H        127.78792       13.18079       15.95378
N        127.64266       14.61271       12.38965
C        128.30212       14.08387       11.19930
C        128.47474       12.57046       11.18820
O        129.60800       12.11934       11.10776
H        126.78525       15.14637       12.23686
H        129.29696       14.57026       11.10355
H        127.70642       14.36381       10.30317
N        127.40156       11.72689       11.23468
C        127.51150       10.25758       11.18671
C        126.69378        9.62947       10.04788
O        126.61889        8.40932        9.99778
C        127.14082        9.64676       12.56558
C        125.74479        9.92795       13.03160
O        124.90442       10.59848       12.23614
O        125.40771        9.63471       14.16699
H        126.46930       12.15560       11.32367
H        128.56688        9.95157       11.01992
H        127.83432       10.08761       13.31480
H        127.30217        8.54715       12.55915
N        126.08488       10.37902        9.07933
C        125.29776        9.80416        7.98737
C        123.93200        9.25850        8.40282
O        123.22380        8.75881        7.53996
H        126.23233       11.39626        9.06739
H        125.89503        9.01291        7.48365
H        125.09975       10.60047        7.23768
N        123.49089        9.33084        9.68919
C        122.20925        8.84157       10.18872
C        121.43157        9.96317       10.88466
O        121.91124       11.08801       10.94086
C        122.46787        7.70240       11.19696
C        123.22744        6.52277       10.56893
C        123.43358        5.38119       11.53683
N        124.08451        4.26754       11.13154
O        123.01557        5.44918       12.68436
H        124.11020        9.74292       10.37386
H        121.58763        8.44556        9.35502
H        121.49791        7.31850       11.57671
H        123.05308        8.09656       12.05764
H        124.22397        6.86611       10.21808
H        122.65309        6.14302        9.69656
H        124.44457        4.19082       10.16911
H        124.22809        3.48000       11.78094
N        120.20602        9.71463       11.43605
C        119.36929       10.71421       12.10251
C        119.05163       10.25202       13.53171
O        118.56157        9.14043       13.68067
C        118.07152       10.90858       11.26217
C        117.12776       11.94477       11.88801
C        118.40708       11.36105        9.82752
H        119.81245        8.76547       11.34525
H        119.88075       11.69341       12.14505
H        117.52993        9.93863       11.20438
H        116.19966       12.03412       11.28377
H        116.83359       11.64749       12.91496
H        117.61418       12.93924       11.91352
H        117.47653       11.48461        9.23297
H        118.95033       12.33158        9.83886
H        119.03646       10.60988        9.30695
N        119.25295       11.06431       14.62246
C        118.91421       10.66975       16.00176
C        117.68202       11.42426       16.50372
O        117.06738       12.13050       15.72137
C        120.12006       10.78500       16.98091
C        120.52644       12.18135       17.39828
N        121.16296       13.01622       16.55246
O        120.31619       12.54376       18.54706
H        119.59999       12.02022       14.46009
H        118.63595        9.59431       16.01991
H        120.99879       10.23029       16.60058
H        119.83168       10.25103       17.90974
H        121.40149       12.71534       15.60203
H        121.45204       13.95459       16.86705
N        117.23403       11.28940       17.79066
C        116.02124       11.93574       18.30070
C        116.09363       13.46629       18.32653
O        115.06924       14.06724       18.62368
C        115.68121       11.48638       19.75221
C        115.17951       10.06441       19.92095
C        113.82756        9.85866       20.26397
C        116.01976        8.94226       19.79666
C        113.32848        8.57200       20.46928
C        115.51674        7.65351       20.00814
C        114.16927        7.46521       20.34557
O        113.67412        6.23012       20.56131
H        117.76377       10.68436       18.42453
H        115.17159       11.65269       17.63961
H        114.85690       12.14326       20.10654
H        116.53664       11.67860       20.43620
H        113.15082       10.69705       20.37708
H        117.06642        9.04121       19.56470
H        112.28673        8.43836       20.73316
H        116.17888        6.80170       19.91901
H        114.22438        5.43672       20.49974
N        117.22944       14.17271       18.05952
C        117.29547       15.63265       18.15189
C        117.47856       16.26849       16.77925
O        117.59732       17.48278       16.69160
C        118.43336       16.03633       19.11090
C        118.35940       15.33295       20.48016
C        117.06163       15.57119       21.19937
O        116.27473       14.52793       21.52767
O        116.71929       16.70325       21.49951
H        118.08903       13.67847       17.78905
H        116.34787       16.04765       18.55991
H        118.40750       17.13892       19.25831
H        119.41102       15.77275       18.65140
H        119.19566       15.69510       21.11474
H        118.49649       14.23906       20.33629
N        117.44542       15.49976       15.65825
C        117.55423       15.97786       14.29396
C        116.21785       15.75517       13.60927
O        115.65965       16.70251       13.07420
C        118.65996       15.18945       13.57513
C        120.04261       15.37755       14.21714
C        121.09204       14.53222       13.54708
O        122.32725       14.47368       14.06504
O        120.83540       13.86964       12.55756
H        117.30160       14.49372       15.75737
H        117.80218       17.06271       14.25303
H        118.69419       15.49319       12.50985
H        118.41371       14.10906       13.62472
H        119.98477       15.06838       15.28013
H        120.35215       16.44371       14.17681
N        115.62037       14.52902       13.62815
C        114.32226       14.28152       13.04566
H        113.56705       14.95545       13.50346
H        114.36163       14.44214       11.94936
H        114.01808       13.23067       13.24526
H        116.08015       13.74042       14.09862
Ca       123.78359       12.29726       13.03962
O        121.79178       14.05381        9.93196
H        121.33872       14.93144        9.96344
H        121.43395       13.61482        9.12050
O        122.29204       10.50602       14.52640
H        122.67633        9.92039       13.82895
H        123.06756       10.81388       15.06141
O        124.14229       12.66253        9.62085
H        123.71846       12.25877        8.82248
H        124.76042       13.34010        9.25106

Ca 1.0



