%chk=holoCaM.loop2.water2.frame73.chk
%nprocshared=20
%mem=10GB
%nosave
#b3lyp/svp scf=(tight,noincore,xqc) Test 
#IOP(5/87=12) Density=Current Pop=(MK,readradii) iop(6/33=2) iop(6/42=6)

holoCaM.loop2.water2.frame73 

   -2  1 
C         67.98519       24.86744       28.03968
C         66.68649       25.61499       28.16763
O         65.63986       25.03400       27.92901
H         68.85084       25.50675       28.31810
H         67.97559       23.99274       28.72514
H         68.12571       24.51539       26.99811
N         66.68339       26.91162       28.57668
C         65.47203       27.67489       28.85721
C         64.61558       27.89842       27.61106
O         65.13795       28.35255       26.60312
C         65.86346       29.04077       29.46310
C         64.72381       29.73600       30.14851
O         64.91216       30.96567       30.66136
O         63.65575       29.17149       30.31764
H         67.59533       27.35524       28.76793
H         64.90250       27.11568       29.63112
H         66.28992       29.68757       28.66678
H         66.63771       28.90166       30.24626
N         63.27350       27.65235       27.64178
C         62.36145       27.85546       26.51878
C         61.27130       28.88436       26.82659
O         60.40130       29.06425       25.98392
C         61.68800       26.51268       26.20105
H         62.86338       27.31441       28.51877
H         62.91091       28.19254       25.61344
H         61.00585       26.61112       25.32867
H         62.45072       25.74358       25.96046
H         61.09150       26.16301       27.07310
N         61.22187       29.57871       28.00352
C         60.04771       30.35667       28.40240
C         60.27060       31.38597       29.52657
O         59.30428       32.06002       29.85820
C         58.91725       29.36329       28.77151
C         59.38127       28.29597       29.73305
O         59.86517       28.62110       30.94067
O         59.34702       27.12118       29.40320
H         61.96086       29.42346       28.68703
H         59.71093       30.98029       27.54407
H         58.57644       28.85147       27.84653
H         58.04105       29.90321       29.18894
N         61.47735       31.62679       30.12219
C         61.68748       32.68002       31.10944
C         60.95484       32.51195       32.43074
O         61.06941       33.41561       33.24735
H         62.31236       31.12277       29.82170
H         61.38045       33.64847       30.65670
H         62.77252       32.74939       31.34180
N         60.17623       31.42917       32.72737
C         59.39423       31.34994       33.95989
C         60.23888       31.27674       35.23497
O         59.66469       31.40299       36.30748
C         58.35007       30.20936       33.90309
C         58.88060       28.79983       33.90752
N         58.00154       27.77389       33.95419
O         60.07958       28.57182       33.88829
H         60.07394       30.68554       32.03410
H         58.79932       32.28890       34.01069
H         57.71949       30.33779       32.99581
H         57.69134       30.30660       34.79181
H         56.98727       27.94747       33.96501
H         58.32194       26.80367       34.00713
N         61.58935       31.07500       35.20621
C         62.44322       31.10601       36.38664
C         63.07083       29.76770       36.73050
O         63.89432       29.74379       37.63368
H         62.05301       30.91748       34.30612
H         61.88385       31.43890       37.28773
H         63.24432       31.85280       36.20158
N         62.67097       28.60479       36.13919
C         63.12217       27.28279       36.57427
C         63.53005       26.39422       35.41176
O         63.36585       26.76460       34.25973
C         61.96171       26.59674       37.35382
C         61.77676       27.23653       38.72868
O         60.75043       26.68194       36.64307
H         61.92571       28.64071       35.43553
H         64.01091       27.35877       37.23859
H         62.18591       25.52902       37.56630
H         60.84933       26.13774       35.81964
H         62.71068       27.11990       39.32126
H         61.53132       28.31454       38.64456
H         60.95661       26.72268       39.27307
N         64.00171       25.14115       35.68074
C         64.19440       24.11240       34.67344
C         62.95154       23.25292       34.69332
O         62.72436       22.53555       35.65878
C         65.51186       23.30624       34.95318
C         66.73351       24.14748       34.50597
C         65.52558       21.91667       34.27625
C         68.08880       23.54484       34.88819
H         64.08094       24.84989       36.66650
H         64.25031       24.55730       33.65943
H         65.56966       23.11116       36.04798
H         66.67715       25.15411       34.97154
H         66.70151       24.27196       33.40039
H         66.43480       21.34416       34.54600
H         64.68714       21.29076       34.64351
H         65.46164       22.00278       33.17572
H         68.89957       24.21391       34.53042
H         68.16786       23.44813       35.99114
H         68.25454       22.55499       34.41785
N         62.07898       23.29998       33.64423
C         60.94289       22.39991       33.53586
C         61.44619       20.99635       33.23172
O         62.63929       20.81728       33.02955
C         59.95733       22.87550       32.43833
C         59.18498       24.09556       32.88475
O         59.75276       25.30795       33.03967
O         57.99696       23.97823       33.13925
H         62.24836       23.97203       32.88315
H         60.38884       22.38127       34.50162
H         59.20071       22.07897       32.29940
H         60.46142       23.03044       31.45797
N         60.59357       19.93631       33.20919
C         61.02807       18.58286       32.88133
C         61.51997       18.46165       31.43436
O         62.62884       17.97718       31.27079
C         59.95482       17.54427       33.25769
C         60.38181       16.11357       32.97960
C         61.66773       15.63849       33.32159
C         59.47402       15.22664       32.37660
C         62.03652       14.32167       33.03811
C         59.84054       13.90177       32.11968
C         61.12308       13.45249       32.44162
H         59.60532       20.09566       33.46368
H         61.88560       18.35624       33.55044
H         58.98841       17.76865       32.75684
H         59.79140       17.64147       34.35374
H         62.40401       16.27590       33.78881
H         58.47435       15.55435       32.12099
H         63.03266       13.97549       33.28395
H         59.12929       13.22278       31.66893
H         61.40907       12.43015       32.23222
N         60.82615       18.91279       30.33598
C         61.35711       18.87831       28.96896
C         62.60836       19.73246       28.73451
O         63.08698       19.73169       27.60816
C         60.17418       19.33780       28.10690
C         59.42390       20.25215       29.04953
C         59.48949       19.46686       30.35262
H         61.62829       17.84069       28.67574
H         60.43791       19.77151       27.11764
H         59.51117       18.46059       27.93263
H         60.02049       21.18521       29.17480
H         58.39536       20.52202       28.72857
H         59.27522       20.15547       31.17938
H         58.76250       18.62332       30.35799
N         63.24165       20.40960       29.73286
C         64.52874       21.07995       29.57384
C         65.62946       20.28367       30.25483
O         66.74376       20.28573       29.75125
C         64.47952       22.48447       30.16827
C         63.41759       23.35384       29.49726
C         63.30631       24.67344       30.18169
O         64.00952       24.95971       31.13730
O         62.30166       25.48262       29.85214
H         62.83247       20.41528       30.66853
H         64.80340       21.17192       28.49961
H         65.47244       22.97711       30.06189
H         64.23909       22.40079       31.25148
H         62.42740       22.85929       29.60029
H         63.62992       23.49554       28.41789
N         65.39403       19.54849       31.37916
C         66.41088       18.72519       31.99134
H         67.25257       19.35642       32.34194
H         65.98015       18.18000       32.85903
H         66.77837       17.97634       31.25713
H         64.46541       19.54085       31.81321
Ca        61.30829       26.14973       31.69819
O         65.38095       27.19935       32.24672
H         65.58700       26.40368       32.79541
H         66.17283       27.78147       32.35238
O         63.61580       29.30108       33.21815
H         63.48082       30.15157       32.73264
H         64.48371       29.41323       33.68025

Ca 1.0



