%chk=holoCaM.loop3.water2.frame417.chk
%nprocshared=20
%mem=10GB
%nosave
#b3lyp/svp scf=(tight,noincore,xqc) Test 
#IOP(5/87=12) Density=Current Pop=(MK,readradii) iop(6/33=2) iop(6/42=6)

holoCaM.loop3.water2.frame417 

   0  1 
C         -4.80496       94.03361       62.20746
C         -5.69046       93.40991       63.23878
O         -6.90512       93.50190       63.12190
H         -4.17995       93.24458       61.73729
H         -5.41065       94.52531       61.41699
H         -4.14790       94.78656       62.68789
N         -5.14075       92.71405       64.27124
C         -5.95808       92.01391       65.24645
C         -6.72097       93.01521       66.11082
O         -6.09908       93.82784       66.78071
C         -5.08081       91.05951       66.08559
C         -5.88896       90.02529       66.80770
O         -7.18284       89.83933       66.50593
O         -5.34313       89.27068       67.58619
H         -4.11339       92.62317       64.31226
H         -6.66707       91.39566       64.66562
H         -4.47228       91.65508       66.79959
H         -4.38818       90.49203       65.42722
N         -8.08145       93.04722       66.08016
C         -8.89410       94.07519       66.72864
C         -8.79857       94.07174       68.24964
O         -8.71471       95.15435       68.81351
C        -10.35967       94.00946       66.23737
C        -10.41912       94.31612       64.72335
C        -11.84550       94.44607       64.18370
C        -11.80447       94.87469       62.70624
N        -13.14905       95.07676       62.17136
H         -8.55947       92.35128       65.49400
H         -8.52668       95.07283       66.39533
H        -10.94133       94.79620       66.76689
H        -10.81668       93.02168       66.46308
H         -9.88615       93.53443       64.14095
H         -9.90718       95.28841       64.55011
H        -12.38409       95.22402       64.76681
H        -12.38462       93.47969       64.28849
H        -11.27637       94.10367       62.10335
H        -11.23768       95.82887       62.61509
H        -13.69204       94.18457       62.21306
H        -13.64169       95.82118       62.71672
H        -13.07493       95.38568       61.17476
N         -8.74642       92.91872       68.97778
C         -8.57885       92.90745       70.44013
C         -7.15946       92.52776       70.84443
O         -6.86874       92.56695       72.03218
C         -9.64936       92.00535       71.12031
C         -9.56619       90.55371       70.72225
O        -10.45148       89.76973       71.02232
O         -8.53217       90.14893       69.97716
H         -8.75322       92.02802       68.46196
H         -8.72515       93.93371       70.84160
H        -10.64539       92.39345       70.81971
H         -9.57156       92.07122       72.22742
N         -6.21095       92.18280       69.92334
C         -4.83709       91.87974       70.27788
C         -4.75488       90.69155       71.19919
O         -4.21758       90.82421       72.28960
H         -6.44734       92.14621       68.92298
H         -4.37189       92.77254       70.75087
H         -4.26306       91.64794       69.35395
N         -5.26057       89.48849       70.80927
C         -5.19866       88.28007       71.62340
C         -4.30518       87.21264       70.99003
O         -4.12293       86.17248       71.60618
C         -6.63075       87.75696       71.88878
C         -7.26138       87.06359       70.69850
N         -7.73551       85.80093       70.80739
O         -7.34773       87.63891       69.62910
H         -5.70986       89.43627       69.89019
H         -4.75610       88.53251       72.61118
H         -7.26736       88.61348       72.20496
H         -6.60069       87.03934       72.73543
H         -7.68970       85.29139       71.70099
H         -8.16506       85.33346       69.99532
N         -3.72044       87.39749       69.76550
C         -2.83998       86.43760       69.11915
C         -3.42372       85.86289       67.83902
O         -2.71501       85.11799       67.17658
H         -3.88154       88.26612       69.24509
H         -2.61123       85.58015       69.78832
H         -1.88333       86.95379       68.89285
N         -4.72554       86.06870       67.47845
C         -5.39233       85.31531       66.41625
C         -6.36459       86.18509       65.65401
O         -7.17855       86.84306       66.28945
C         -6.19867       84.18756       67.08599
C         -5.27211       83.23171       67.78902
C         -5.16326       83.25276       69.18769
C         -4.48634       82.33329       67.04805
C         -4.27522       82.39254       69.83670
C         -3.61079       81.46152       67.70058
C         -3.49998       81.49156       69.09872
O         -2.65329       80.66329       69.74195
H         -5.32748       86.62429       68.10285
H         -4.66710       84.84986       65.71164
H         -6.81098       83.62228       66.34853
H         -6.90059       84.65126       67.81449
H         -5.74710       83.95176       69.77283
H         -4.55756       82.30430       65.96719
H         -4.18837       82.42984       70.91476
H         -3.01685       80.76767       67.11890
H         -2.10354       80.02211       69.26957
N         -6.41292       86.15669       64.28895
C         -7.44684       86.86036       63.53456
C         -8.40063       85.87497       62.88481
O         -8.05036       84.71918       62.68471
C         -6.84949       87.87695       62.51358
C         -6.02354       87.20173       61.38784
C         -6.01940       88.91630       63.27340
C         -5.51286       88.19092       60.33352
H         -5.74630       85.55981       63.77627
H         -8.07836       87.44571       64.23777
H         -7.70007       88.40967       62.03618
H         -6.66893       86.46748       60.86063
H         -5.15174       86.66190       61.81330
H         -6.65138       89.33805       64.06868
H         -5.12339       88.45442       63.73933
H         -5.70192       89.75429       62.62059
H         -4.98126       87.63809       59.53078
H         -6.36062       88.74626       59.88057
H         -4.79208       88.91366       60.76772
N         -9.64775       86.29112       62.53547
C        -10.63544       85.46900       61.84916
C        -10.85545       86.04244       60.46451
O        -10.21706       87.02558       60.12808
C        -11.94567       85.43653       62.66387
O        -12.47575       86.72896       62.79495
H         -9.90686       87.26619       62.73866
H        -10.27213       84.42520       61.73034
H        -11.74102       85.01566       63.67327
H        -12.68505       84.78089       62.15135
H        -13.37481       86.62345       63.20305
N        -11.73206       85.48477       59.59032
C        -11.98305       86.05662       58.27009
C        -12.53219       87.46948       58.38829
O        -12.02592       88.36126       57.72264
C        -12.96164       85.18294       57.48701
H        -12.24332       84.63509       59.87602
H        -11.03434       86.07681       57.68614
H        -13.11646       85.61101       56.47303
H        -12.53667       84.16282       57.37082
H        -13.93921       85.11327       58.00776
N        -13.54137       87.74485       59.26395
C        -14.11921       89.07378       59.45832
C        -13.05420       90.11461       59.74023
O        -13.01585       91.12942       59.05843
C        -15.11692       89.04142       60.62580
H        -13.89432       86.96939       59.84647
H        -14.67216       89.37172       58.54075
H        -15.92655       88.31081       60.41771
H        -14.61085       88.74496       61.57108
H        -15.57525       90.04313       60.77040
N        -12.14118       89.91030       60.72412
C        -11.08763       90.86325       61.06221
C        -10.21196       91.14253       59.85040
O        -10.11133       92.29328       59.44927
C        -10.25369       90.31352       62.23166
C        -11.10169       90.19022       63.51313
C        -10.32679       89.50897       64.58803
O        -10.74111       88.48511       65.10855
O         -9.15716       90.02463       64.97385
H        -12.19636       89.01866       61.23886
H        -11.54651       91.82099       61.39207
H         -9.39008       90.98477       62.43899
H         -9.85396       89.32443       61.93730
H        -12.03007       89.60912       63.34246
H        -11.38762       91.20655       63.85718
N         -9.58004       90.12880       59.19886
C         -8.78420       90.30018       58.00164
H         -7.75874       89.91751       58.18111
H         -9.24166       89.71261       57.17677
H         -8.71993       91.36060       57.68310
H         -9.68512       89.17588       59.55028
Ca        -8.75473       89.25191       67.96357
O        -11.35801       90.65576       67.75655
H        -11.67216       91.15347       68.55249
H        -12.16076       90.18189       67.42372
O         -9.66463       85.99164       67.67240
H        -10.63008       86.15183       67.82122
H         -9.62932       85.39094       66.88587

Ca 1.0



