%chk=holoCaM-CaMKII.loop1.water2.frame120.chk
%nprocshared=20
%mem=10GB
%nosave
#b3lyp/svp scf=(tight,noincore,xqc) Test 
#IOP(5/87=12) Density=Current Pop=(MK,readradii) iop(6/33=2) iop(6/42=6)

holoCaM-CaMKII.loop1.water2.frame120 

   0  1 
C         29.01035       54.39350       59.40272
C         28.61899       54.60106       57.96973
O         27.47774       54.33678       57.62504
H         30.06571       54.68939       59.58211
H         28.35767       55.00958       60.05648
H         28.89142       53.32302       59.66963
N         29.50945       55.10799       57.07589
C         29.16041       55.36688       55.68627
C         28.96673       54.06205       54.92464
O         29.92493       53.31089       54.79902
C         30.28143       56.19490       55.03331
C         29.93748       56.69701       53.67217
O         30.81448       57.49266       53.05251
O         28.87150       56.43872       53.13917
H         30.44872       55.37029       57.41477
H         28.23272       55.98489       55.67798
H         31.22176       55.60430       54.98210
H         30.48886       57.08839       55.65359
N         27.75398       53.71347       54.40359
C         27.55703       52.45142       53.69370
C         28.22089       52.47324       52.31794
O         29.14680       51.70347       52.10287
C         26.06160       52.08201       53.57017
C         25.25534       51.94576       54.88622
C         25.74960       50.85434       55.85561
C         26.82787       51.33897       56.84234
N         27.30851       50.23825       57.67443
H         26.94672       54.32902       54.57936
H         28.02903       51.63247       54.27089
H         25.99508       51.10976       53.03405
H         25.53536       52.82729       52.94543
H         24.23778       51.64223       54.55413
H         25.13906       52.91104       55.42151
H         26.07629       49.96597       55.27378
H         24.88995       50.54465       56.49029
H         26.37449       52.11742       57.49277
H         27.69778       51.79375       56.34261
H         27.77726       49.52243       57.07245
H         28.00586       50.60868       58.36035
H         26.51560       49.80011       58.19603
N         27.76551       53.28773       51.31875
C         28.30027       53.26039       49.95261
C         29.72318       53.78547       49.83094
O         30.28535       53.66722       48.75051
C         27.36665       54.02569       48.98005
C         27.15932       55.48256       49.31652
O         26.32688       56.12649       48.69945
O         27.81788       56.05966       50.33965
H         26.95422       53.88565       51.51630
H         28.30053       52.19860       49.61804
H         26.37163       53.53035       49.02493
H         27.73734       53.93834       47.93551
N         30.37055       54.38676       50.86798
C         31.72937       54.88462       50.76095
C         31.85534       55.97705       49.72304
O         32.63604       55.82107       48.79507
H         29.89883       54.49535       51.77489
H         32.40943       54.03940       50.51672
H         32.04383       55.30049       51.74243
N         31.13535       57.12840       49.84079
C         31.26269       58.26334       48.92699
C         31.85871       59.49439       49.61545
O         32.04264       60.50132       48.94664
C         29.90723       58.56072       48.23851
C         28.76224       58.96216       49.13526
O         28.90387       59.05130       50.46724
O         27.67440       59.20631       48.63924
H         30.48582       57.20659       50.63349
H         31.97369       58.01255       48.11038
H         29.59565       57.64988       47.68297
H         30.05889       59.37619       47.49869
N         32.21012       59.48066       50.93460
C         32.82978       60.58864       51.64177
C         31.92505       61.17344       52.70699
O         32.40648       61.99018       53.48016
H         32.06006       58.63627       51.48855
H         33.11818       61.41468       50.95770
H         33.75872       60.20387       52.11576
N         30.58927       60.88935       52.75053
C         29.65435       61.54278       53.66311
C         28.72693       60.52931       54.32668
O         28.68856       59.38380       53.90164
C         28.83966       62.60353       52.87966
C         29.74247       63.69960       52.28225
O         28.06848       62.00066       51.86932
H         30.19635       60.26640       52.03868
H         30.21757       62.06134       54.46978
H         28.14136       63.10990       53.57921
H         28.66953       61.75155       51.11856
H         30.31263       64.21001       53.08645
H         30.46429       63.27336       51.55204
H         29.12489       64.45212       51.74886
N         27.96654       60.88298       55.40564
C         27.07143       59.95739       56.10438
C         25.68510       60.57823       56.16976
O         25.54813       61.65826       56.72992
C         27.60784       59.64661       57.53657
C         29.05746       59.10508       57.46234
C         26.68814       58.61957       58.23732
C         29.72923       58.91259       58.82298
H         28.05973       61.84104       55.77854
H         27.01795       58.98679       55.56105
H         27.61916       60.59113       58.12417
H         29.69506       59.82319       56.90497
H         29.05173       58.14205       56.91970
H         27.01977       58.41431       59.27396
H         25.64905       58.99752       58.30977
H         26.67482       57.66027       57.67344
H         29.75499       59.87623       59.37478
H         29.21399       58.14655       59.43493
H         30.77391       58.56802       58.66786
N         24.60501       59.94201       55.63505
C         23.25661       60.50641       55.66480
C         22.50388       60.05955       56.91136
O         23.00085       59.23337       57.66417
C         22.47189       60.10815       54.38483
C         23.16743       60.59186       53.11192
O         22.33580       58.71418       54.32922
H         24.74444       59.02134       55.19808
H         23.32335       61.61698       55.69569
H         21.46208       60.57714       54.42801
H         21.58612       58.51593       53.70957
H         24.17344       60.13303       53.02350
H         22.56923       60.29348       52.22387
H         23.26453       61.69674       53.11959
N         21.27375       60.58392       57.18187
C         20.43298       60.15605       58.30112
C         20.05460       58.69349       58.15573
O         19.99915       57.98941       59.15382
C         19.13655       60.99971       58.39439
C         19.42722       62.46286       58.74059
O         18.42464       60.93170       57.18566
H         20.91031       61.30708       56.54338
H         20.98050       60.29193       59.26143
H         18.52100       60.57493       59.22405
H         17.47006       61.10066       57.39920
H         18.47046       63.01915       58.83512
H         19.96321       62.52477       59.71150
H         20.04122       62.95041       57.95606
N         19.77761       58.17622       56.92697
C         19.43615       56.77897       56.69143
C         20.60998       55.91274       57.11296
O         20.43979       54.99482       57.90270
C         19.14141       56.51068       55.18748
C         17.85021       57.13107       54.60105
C         17.81964       58.66476       54.58685
C         16.61066       59.21965       53.82740
N         16.61365       60.68355       53.85894
H         19.86796       58.80371       56.11875
H         18.52850       56.49630       57.26976
H         19.02641       55.41066       55.06202
H         20.00830       56.82255       54.56648
H         16.96290       56.74768       55.14984
H         17.78229       56.77871       53.54801
H         18.74219       59.04627       54.09549
H         17.75368       59.03175       55.62843
H         15.67137       58.84366       54.28935
H         16.64892       58.87598       52.76984
H         17.49118       61.05347       53.42536
H         15.79335       61.04262       53.31986
H         16.54320       61.02231       54.84620
N         21.84419       56.17061       56.59898
C         23.03725       55.37125       56.85976
C         23.49365       55.43158       58.31290
O         24.39471       54.68212       58.66492
C         24.18200       55.82416       55.91821
C         23.77695       55.62462       54.44396
C         24.82800       56.05733       53.47276
O         25.23766       57.33623       53.37387
O         25.28518       55.23967       52.69669
H         21.92000       56.96905       55.95964
H         22.79681       54.31013       56.62368
H         25.09691       55.22618       56.12082
H         24.41920       56.89142       56.11479
H         22.86147       56.18589       54.18526
H         23.56034       54.54506       54.28678
N         22.93209       56.28173       59.21745
C         23.32569       56.30507       60.60836
H         22.74041       57.07810       61.15179
H         23.11937       55.31755       61.07375
H         24.40566       56.54471       60.69774
H         22.20443       56.94104       58.92509
Ca        26.72301       57.49303       51.68987
O         25.78076       60.38750       50.91516
H         25.75144       61.36781       51.04367
H         24.87282       60.16310       50.59427
O         24.03881       57.73436       50.19366
H         23.35375       58.02072       49.53899
H         24.10048       56.75327       50.08037

Ca 1.0



