%chk=holoCaM.loop2.water1.frame47.chk
%nprocshared=20
%mem=10GB
%nosave
#b3lyp/svp scf=(tight,noincore,xqc) Test 
#IOP(5/87=12) Density=Current Pop=(MK,readradii) iop(6/33=2) iop(6/42=6)

holoCaM.loop2.water1.frame47 

   -2  1 
C         87.87567       93.22816       11.57822
C         86.92155       94.38349       11.57448
O         85.77745       94.20074       11.18228
H         88.86914       93.52363       11.97630
H         87.46659       92.42298       12.22575
H         87.99939       92.84139       10.54673
N         87.30781       95.60246       12.04230
C         86.37118       96.70564       12.16703
C         85.91625       97.23230       10.80506
O         86.72374       97.74433       10.04298
C         86.98030       97.83666       13.01138
C         85.96809       98.88761       13.35191
O         84.81883       98.81443       12.96101
O         86.32619       99.92041       14.11269
H         88.26877       95.71636       12.40177
H         85.50285       96.32213       12.75177
H         87.84051       98.29956       12.47991
H         87.34687       97.41577       13.97331
N         84.60307       97.14411       10.46395
C         84.00911       97.64887        9.22908
C         84.01656       99.17489        9.15320
O         84.38277       99.71670        8.12072
C         82.55197       97.16917        9.14077
H         83.98493       96.66316       11.12713
H         84.53454       97.20969        8.35250
H         82.09549       97.48986        8.18102
H         82.51620       96.05871        9.18929
H         81.94229       97.57734        9.97283
N         83.59080       99.92154       10.21405
C         83.42058      101.38207       10.20610
C         84.60444      102.13801       10.81759
O         84.56304      103.36093       10.82847
C         82.06481      101.79494       10.85909
C         82.00665      101.49328       12.33975
O         82.13346      100.21672       12.72815
O         81.90397      102.38650       13.16430
H         83.38907       99.40030       11.06791
H         83.37448      101.72630        9.14906
H         81.23237      101.26585       10.34432
H         81.91158      102.88577       10.70535
N         85.72936      101.49762       11.25013
C         86.96055      102.19169       11.61176
C         86.97062      102.98788       12.90812
O         87.99821      103.59972       13.16513
H         85.77886      100.47365       11.18223
H         87.22991      102.87236       10.77373
H         87.77397      101.43979       11.69822
N         85.91893      103.04942       13.77612
C         85.96688      103.88168       14.98836
C         87.03410      103.46527       16.00948
O         87.36514      104.27505       16.86470
C         84.59901      103.94266       15.69404
C         84.18251      102.61080       16.27309
N         84.01538      102.46394       17.60567
O         83.99124      101.65524       15.53705
H         85.05435      102.54620       13.53654
H         86.20743      104.91441       14.64792
H         83.82084      104.29120       14.98238
H         84.66431      104.69577       16.51021
H         84.18195      103.24438       18.25699
H         83.71782      101.55665       17.98427
N         87.57183      102.21466       16.01485
C         88.59960      101.75200       16.93098
C         88.18070      100.56498       17.78860
O         89.06299      100.01052       18.42642
H         87.25774      101.54801       15.31601
H         88.95885      102.56000       17.60354
H         89.46115      101.43054       16.30630
N         86.88290      100.13509       17.90350
C         86.49684       98.98881       18.74431
C         85.71332       97.95774       17.92847
O         85.49002       98.18641       16.74858
C         85.73343       99.46588       20.00582
C         86.57293      100.47761       20.80478
O         84.50393      100.03499       19.65319
H         86.13699      100.65308       17.41911
H         87.40495       98.46700       19.11569
H         85.55001       98.57962       20.65445
H         84.00117      100.18255       20.49750
H         87.55325      100.03415       21.08166
H         86.75017      101.40015       20.21132
H         86.04468      100.76502       21.73798
N         85.30022       96.77375       18.48912
C         84.66824       95.70021       17.71608
C         83.24124       95.43363       18.21575
O         83.04705       95.02168       19.34930
C         85.55577       94.41747       17.76135
C         86.98004       94.73060       17.22205
C         84.90903       93.27805       16.94966
C         87.95706       93.55618       17.32300
H         85.48706       96.59889       19.48665
H         84.60593       95.99884       16.64710
H         85.64090       94.08787       18.82068
H         87.42274       95.55843       17.81544
H         86.92062       95.06099       16.16119
H         84.83086       93.56033       15.88024
H         85.49206       92.34017       17.03043
H         83.89937       93.04269       17.33637
H         88.04653       93.22036       18.37775
H         87.64318       92.70406       16.68775
H         88.95834       93.87983       16.96813
N         82.19535       95.66533       17.37100
C         80.77026       95.45643       17.64398
C         80.41477       93.97384       17.60721
O         81.30016       93.16419       17.40188
C         79.94636       96.17036       16.53839
C         80.21931       97.65004       16.43262
O         79.64933       98.30249       15.57326
O         81.08654       98.26595       17.26114
H         82.43298       96.05495       16.46207
H         80.50365       95.90745       18.62430
H         78.86095       96.05154       16.73202
H         80.18262       95.70489       15.55425
N         79.12859       93.53746       17.77157
C         78.75256       92.13151       17.61814
C         78.88779       91.65943       16.16398
O         79.62884       90.70601       15.96923
C         77.36188       91.83891       18.23329
C         76.92783       90.39501       18.05448
C         77.75367       89.32887       18.46284
C         75.67820       90.10157       17.47706
C         77.34273       88.00446       18.28364
C         75.26571       88.77458       17.31444
C         76.09901       87.72724       17.71320
H         78.39651       94.22180       18.01369
H         79.45489       91.53103       18.23710
H         76.58660       92.51481       17.83238
H         77.42587       92.05488       19.32134
H         78.72025       89.51314       18.91066
H         75.01615       90.89784       17.16069
H         77.98933       87.19188       18.58939
H         74.29903       88.55736       16.87837
H         75.78075       86.70083       17.58187
N         78.24927       92.23819       15.08923
C         78.43294       91.81041       13.70096
C         79.88778       91.59911       13.32995
O         80.23592       90.57460       12.76150
C         77.86894       92.98872       12.88685
C         76.73772       93.45167       13.76507
C         77.37638       93.39680       15.15167
H         77.83575       90.88864       13.52015
H         78.59608       93.83301       12.86145
H         77.59674       92.74080       11.83849
H         76.29627       94.43619       13.49826
H         75.94143       92.67489       13.70793
H         77.99538       94.29423       15.35534
H         76.55514       93.31189       15.88126
N         80.78913       92.55979       13.65460
C         82.21240       92.52762       13.33817
C         82.86856       91.31358       13.97560
O         83.43681       90.50730       13.25227
C         82.82398       93.89206       13.76561
C         82.22964       94.98222       12.83853
C         82.38922       96.41957       13.23420
O         82.89520       96.82247       14.41024
O         81.92733       97.26646       12.48845
H         80.42489       93.37407       14.17355
H         82.34861       92.43624       12.23635
H         83.93010       93.90041       13.65757
H         82.56998       94.08087       14.83209
H         81.13187       94.86382       12.74543
H         82.65998       94.82845       11.82633
N         82.77977       91.08896       15.31242
C         83.30355       89.91144       15.97620
H         84.03522       90.21541       16.75235
H         82.46737       89.37069       16.46997
H         83.79994       89.21127       15.27250
H         82.28576       91.77067       15.88822
Ca        82.69350       99.06794       14.57941
O         80.93574      101.08664       16.01946
H         80.49030      101.71481       15.39809
H         81.38055      101.66802       16.68506

Ca 1.0



