%chk=holoCaM.loop2.water2.frame139.chk
%nprocshared=20
%mem=10GB
%nosave
#b3lyp/svp scf=(tight,noincore,xqc) Test 
#IOP(5/87=12) Density=Current Pop=(MK,readradii) iop(6/33=2) iop(6/42=6)

holoCaM.loop2.water2.frame139 

   -2  1 
C         10.54016       77.41967      -18.83518
C         11.24437       76.11824      -19.10053
O         12.20607       75.79302      -18.42039
H          9.48092       77.21336      -18.56535
H         11.01453       77.97569      -18.00030
H         10.55456       78.05065      -19.74887
N         10.77385       75.30418      -20.07981
C         11.29985       73.97649      -20.37805
C         12.73564       74.00024      -20.89547
O         13.03035       74.73341      -21.82832
C         10.36726       73.29849      -21.39513
C         10.79328       71.89667      -21.67802
O         11.00600       71.54582      -22.82660
O         10.95394       71.02633      -20.66332
H          9.94667       75.63216      -20.60465
H         11.25612       73.36919      -19.44736
H         10.32702       73.88285      -22.34007
H          9.34347       73.26168      -20.96608
N         13.66310       73.15607      -20.35063
C         15.06542       73.07708      -20.75109
C         15.46894       71.69214      -21.27758
O         16.64794       71.51848      -21.55719
C         15.93178       73.42308      -19.53181
H         13.35642       72.52707      -19.59953
H         15.29002       73.82040      -21.54640
H         15.67214       74.43293      -19.15011
H         15.77666       72.68290      -18.71791
H         17.00969       73.42315      -19.80272
N         14.57742       70.66755      -21.46142
C         15.00868       69.32307      -21.89369
C         13.91838       68.39797      -22.46714
O         14.27778       67.31672      -22.91345
C         15.72585       68.61334      -20.72082
C         14.83411       68.43888      -19.52209
O         13.54967       68.83738      -19.55357
O         15.29105       67.97571      -18.48961
H         13.59389       70.86438      -21.26757
H         15.72328       69.44961      -22.73661
H         16.59729       69.22319      -20.40403
H         16.10749       67.61888      -21.03675
N         12.60053       68.73294      -22.53223
C         11.58159       67.90982      -23.15737
C         11.36358       66.59536      -22.45200
O         11.46570       65.55796      -23.09070
H         12.27973       69.62438      -22.17012
H         11.84170       67.74651      -24.22572
H         10.61439       68.46001      -23.12835
N         10.99936       66.57363      -21.13996
C         10.61701       65.35674      -20.42478
C          9.16014       65.42935      -19.94816
O          8.72719       64.52707      -19.24482
C         11.60263       65.06392      -19.26701
C         11.63221       66.07046      -18.14843
N         12.41653       65.85516      -17.06879
O         10.94637       67.07487      -18.19842
H         10.94763       67.47394      -20.63976
H         10.68624       64.47222      -21.09503
H         12.62973       64.97092      -19.68267
H         11.32764       64.08293      -18.82194
H         13.00142       65.01006      -17.00019
H         12.42755       66.53000      -16.29206
N          8.32933       66.44661      -20.33333
C          6.92681       66.55015      -19.95046
C          6.67710       66.94039      -18.50170
O          5.51449       67.04957      -18.13918
H          8.66964       67.14991      -21.00073
H          6.41223       65.59467      -20.18857
H          6.45703       67.34803      -20.56639
N          7.68913       67.18216      -17.62207
C          7.49405       67.56601      -16.22564
C          8.17421       68.89735      -15.91348
O          8.83693       69.47141      -16.76554
C          8.04646       66.44125      -15.30204
C          7.18111       65.18303      -15.38545
O          9.36820       66.10905      -15.64485
H          8.65208       67.07892      -17.94379
H          6.41495       67.70699      -15.99693
H          8.00777       66.74385      -14.23217
H          9.94850       66.84571      -15.32151
H          6.14372       65.41826      -15.06171
H          7.15651       64.77830      -16.41813
H          7.58487       64.40329      -14.70435
N          8.06199       69.41519      -14.65789
C          8.73862       70.60724      -14.15767
C          9.82546       70.13261      -13.21960
O          9.55685       69.34697      -12.31962
C          7.71445       71.55360      -13.44667
C          6.85698       72.34503      -14.47166
C          8.36851       72.51755      -12.43126
C          7.59970       73.50080      -15.16695
H          7.50974       68.88317      -13.96794
H          9.24280       71.16728      -14.97165
H          7.03015       70.91046      -12.84940
H          5.99201       72.80054      -13.94273
H          6.45538       71.64392      -15.23438
H          7.59471       73.16429      -11.96520
H          8.85289       71.95085      -11.60875
H          9.14441       73.15160      -12.90811
H          6.93193       73.98598      -15.90836
H          7.89259       74.28195      -14.43386
H          8.51322       73.16173      -15.68403
N         11.08882       70.61535      -13.36882
C         12.21849       70.20532      -12.55179
C         12.56449       71.31414      -11.59140
O         11.95131       72.37429      -11.64556
C         13.43264       69.91142      -13.44897
C         13.13357       68.95037      -14.55456
O         12.14410       69.24312      -15.41634
O         13.86305       67.99361      -14.75804
H         11.25678       71.34039      -14.07980
H         11.95502       69.30364      -11.95646
H         14.29587       69.54999      -12.84997
H         13.73359       70.86218      -13.94358
N         13.50758       71.12022      -10.63250
C         13.77238       72.12176       -9.61761
C         14.40968       73.38235      -10.19153
O         13.91066       74.44750       -9.86724
C         14.53799       71.53805       -8.41791
C         14.55299       72.52385       -7.27195
C         13.34309       72.99554       -6.71910
C         15.76825       72.98828       -6.74858
C         13.35395       73.92703       -5.68201
C         15.77335       73.91415       -5.70031
C         14.56813       74.38687       -5.17201
H         13.97454       70.20144      -10.56963
H         12.77831       72.40307       -9.21166
H         15.56295       71.23832       -8.71098
H         14.00958       70.62388       -8.06870
H         12.38471       72.65452       -7.08920
H         16.70916       72.63636       -7.15205
H         12.41833       74.29108       -5.27639
H         16.71280       74.26876       -5.29971
H         14.57301       75.10821       -4.36631
N         15.47644       73.37976      -11.05585
C         15.97545       74.58506      -11.71159
C         14.86786       75.33963      -12.43310
O         14.74340       76.54564      -12.27130
C         16.97825       74.04741      -12.75063
C         17.49003       72.79893      -12.07746
C         16.20376       72.20917      -11.50210
H         16.49293       75.22294      -10.96080
H         16.44808       73.69189      -13.66355
H         17.74901       74.78104      -13.07177
H         18.06554       72.11004      -12.73256
H         18.14060       73.11974      -11.23227
H         15.60479       71.68928      -12.28100
H         16.48207       71.51291      -10.68959
N         14.02945       74.65612      -13.26276
C         12.99589       75.26957      -14.09545
C         11.84859       75.86404      -13.28440
O         11.02289       76.55544      -13.86457
C         12.40369       74.20838      -15.04931
C         13.46677       73.55155      -15.95480
C         12.92520       72.38068      -16.71721
O         11.63167       72.01986      -16.62505
O         13.68733       71.70981      -17.39065
H         14.16854       73.63756      -13.31978
H         13.47306       76.07289      -14.69963
H         11.61192       74.65522      -15.69060
H         11.93575       73.42965      -14.41332
H         14.30402       73.14458      -15.35787
H         13.88473       74.30329      -16.65725
N         11.69464       75.59947      -11.95885
C         10.59850       76.12092      -11.17438
H          9.63113       75.77880      -11.59892
H         10.67570       75.74792      -10.12953
H         10.63557       77.22988      -11.15917
H         12.35370       74.97967      -11.48748
Ca        12.57842       69.10901      -17.58154
O          8.90465       69.41062      -20.05782
H          8.26932       69.81740      -19.41992
H          8.59313       69.71192      -20.94850
O          9.34440       71.98510      -18.40770
H          9.15044       71.98606      -17.44058
H          8.61913       72.52806      -18.80325

Ca 1.0



