%chk=holoCaM.loop4.water3.frame308.chk
%nprocshared=20
%mem=10GB
%nosave
#b3lyp/svp scf=(tight,noincore,xqc) Test 
#IOP(5/87=12) Density=Current Pop=(MK,readradii) iop(6/33=2) iop(6/42=6)

holoCaM.loop4.water3.frame308 

   -3  1 
C         23.14735       59.12309       82.11529
C         22.19810       60.27346       82.27035
O         21.04326       60.02770       82.58254
H         24.00384       59.25340       82.80968
H         22.63930       58.16639       82.37310
H         23.51409       59.06235       81.07164
N         22.62007       61.56369       82.09171
C         21.75657       62.72273       82.33016
C         22.47030       64.05280       82.02270
O         23.53568       64.30444       82.56747
C         21.27270       62.72466       83.80456
C         20.45685       63.93904       84.09500
O         20.83832       64.73553       84.93598
O         19.41129       64.26392       83.32368
H         23.60029       61.71902       81.80933
H         20.86323       62.64228       81.67185
H         22.15355       62.71153       84.48262
H         20.64723       61.84253       84.03152
N         21.87477       64.97475       81.20165
C         22.39309       66.30765       80.88757
C         21.43746       67.44847       81.28480
O         21.87451       68.58923       81.21335
C         22.69338       66.44828       79.35787
C         21.41353       66.27344       78.48566
C         23.78922       65.46043       78.93186
C         21.59295       66.67444       77.02160
H         20.98577       64.72146       80.78963
H         23.33687       66.47084       81.45268
H         23.08591       67.47755       79.19744
H         20.59178       66.91020       78.87653
H         21.08238       65.21925       78.51713
H         24.68976       65.59473       79.56619
H         23.43251       64.41274       79.02956
H         24.09535       65.63626       77.88114
H         22.36363       66.06026       76.51706
H         20.63274       66.52296       76.48194
H         21.86593       67.74862       76.95245
N         20.12110       67.24907       81.61119
C         19.17442       68.34856       81.85048
C         18.51470       68.30421       83.22967
O         17.79653       69.23979       83.55458
C         18.13753       68.44874       80.69281
C         17.29707       67.23204       80.37027
O         17.48601       66.05516       80.98241
O         16.48865       67.29326       79.45886
H         19.75743       66.29193       81.62629
H         19.71785       69.31837       81.83721
H         18.69727       68.69628       79.76380
H         17.45181       69.29833       80.90177
N         18.72857       67.28223       84.10451
C         18.20396       67.22630       85.46143
C         16.70828       67.38776       85.50498
O         16.23379       68.29125       86.17893
H         19.32078       66.50658       83.81470
H         18.67760       68.02565       86.07043
H         18.47691       66.24627       85.91245
N         15.90424       66.56107       84.78679
C         14.45474       66.71664       84.72324
C         13.71108       65.49869       85.25483
O         12.49024       65.49052       85.16734
C         14.04286       67.13330       83.29418
C         14.38419       66.16877       82.19604
O         14.93300       64.96799       82.45443
O         14.16342       66.49025       81.04025
H         16.35034       65.81835       84.22868
H         14.12113       67.56137       85.36554
H         14.56135       68.09177       83.06905
H         12.94842       67.32937       83.26191
N         14.35127       64.48406       85.91410
C         13.61744       63.41627       86.57916
C         13.23760       62.28677       85.65348
O         12.40124       61.48012       86.03493
H         15.36770       64.53215       86.07050
H         12.70492       63.84575       87.04808
H         14.22286       62.99212       87.40788
N         13.84837       62.12280       84.44785
C         13.46399       61.07940       83.49975
C         14.57461       60.80074       82.49563
O         15.57421       61.50489       82.49323
C         12.15985       61.52151       82.79284
C         12.36338       62.86895       82.06378
C         11.11411       63.46586       81.47586
N         11.18178       64.67173       80.86566
O         10.04078       62.88874       81.56127
H         14.60102       62.77500       84.19266
H         13.31494       60.12503       84.05326
H         11.36979       61.64959       83.56407
H         11.81476       60.74662       82.07517
H         13.11249       62.73771       81.25569
H         12.74490       63.61767       82.78719
H         12.07847       65.17031       80.79513
H         10.34077       65.11650       80.47190
N         14.47199       59.76075       81.61677
C         15.51070       59.45727       80.63867
C         14.94087       59.62048       79.23972
O         13.88135       59.08970       78.93772
C         16.17238       58.07295       80.90328
C         15.28966       56.87806       80.52252
C         17.52427       57.96835       80.17487
H         13.63157       59.16375       81.64382
H         16.34344       60.18401       80.75751
H         16.40436       58.01221       81.99029
H         15.80908       55.93017       80.78087
H         14.32560       56.90997       81.06687
H         15.09772       56.86612       79.42813
H         18.02420       57.00708       80.41621
H         17.39626       58.04261       79.07646
H         18.20455       58.77949       80.51207
N         15.62763       60.35126       78.33020
C         15.22807       60.57255       76.95126
C         15.83594       59.47798       76.09100
O         16.57524       58.65361       76.60591
C         15.72602       61.99931       76.56888
C         15.51060       62.44666       75.14748
N         14.26964       62.53739       74.62222
O         16.47664       62.75740       74.46629
H         16.56557       60.65118       78.59638
H         14.12236       60.51594       76.85499
H         16.81793       62.05554       76.77104
H         15.22693       62.73643       77.23195
H         13.44212       62.29199       75.18249
H         14.14190       62.84932       73.64788
N         15.55985       59.39936       74.76250
C         16.24167       58.47845       73.85884
C         17.73078       58.75559       73.87293
O         18.50361       57.83082       74.08072
C         15.71491       58.66150       72.41823
C         14.46063       57.86594       72.16009
C         14.58715       56.50610       71.82620
C         13.18290       58.44601       72.20261
C         13.46136       55.73935       71.52732
C         12.05095       57.66998       71.91322
C         12.18979       56.31520       71.56775
O         11.11449       55.55871       71.26825
H         14.87392       60.05579       74.36757
H         16.08763       57.42000       74.17077
H         16.46438       58.28754       71.68567
H         15.59150       59.74017       72.17371
H         15.56590       56.04374       71.77849
H         13.06156       59.49093       72.45852
H         13.58112       54.69761       71.25631
H         11.06779       58.12176       71.94917
H         10.21485       55.91406       71.27153
N         18.20476       60.00848       73.63319
C         19.62971       60.31166       73.54241
C         20.38300       60.14231       74.86281
O         21.59851       60.28150       74.84520
C         19.86599       61.73624       72.98240
C         19.12646       62.02589       71.65836
C         19.35477       60.96291       70.61995
O         18.40783       60.33400       70.17305
O         20.59971       60.68574       70.19014
H         17.51589       60.74720       73.45072
H         20.07091       59.59736       72.81253
H         20.95803       61.85722       72.80714
H         19.55208       62.50057       73.72719
H         19.46479       63.00746       71.26488
H         18.03597       62.11548       71.84551
N         19.75173       59.81982       76.03150
C         20.45065       59.59816       77.29623
C         20.39602       58.12771       77.69809
O         21.20025       57.71882       78.52414
C         19.80652       60.44874       78.41046
C         19.69937       61.93422       78.03807
C         18.91200       62.70840       79.05470
O         19.39158       63.84461       79.55093
O         17.79770       62.36096       79.38707
H         18.73201       59.72217       76.03775
H         21.52274       59.87400       77.18856
H         20.35996       60.32483       79.36804
H         18.77653       60.06438       78.55529
H         19.15470       62.03118       77.07872
H         20.71091       62.37784       77.91307
N         19.45904       57.27807       77.18589
C         19.37560       55.88178       77.54401
H         18.49369       55.42338       77.04366
H         20.28950       55.35232       77.20638
H         19.25184       55.77150       78.64061
H         18.75183       57.61877       76.53157
Ca        17.70521       64.03613       81.91773
O         18.48971       61.35931       82.43546
H         18.74166       60.89390       81.60025
H         18.14175       60.64762       83.02784
O         15.35638       63.67574       79.70364
H         15.83520       64.34584       79.15418
H         14.52096       64.13018       79.97030
O         17.15361       62.74694       84.73975
H         17.67140       62.98793       85.54718
H         16.84515       61.82132       84.90887

Ca 1.0



