%chk=holoCaM-CaMKII.loop1.water2.frame297.chk
%nprocshared=20
%mem=10GB
%nosave
#b3lyp/svp scf=(tight,noincore,xqc) Test 
#IOP(5/87=12) Density=Current Pop=(MK,readradii) iop(6/33=2) iop(6/42=6)

holoCaM-CaMKII.loop1.water2.frame297 

   0  1 
C         50.15576       21.48607       81.61145
C         51.37265       20.64067       81.84332
O         51.69030       20.36413       82.99124
H         49.27203       20.97631       82.05244
H         50.28520       22.47692       82.09076
H         49.96333       21.63113       80.52711
N         52.08096       20.15005       80.78967
C         53.17689       19.20933       80.95902
C         54.38987       19.84682       81.62820
O         54.81342       20.91038       81.19728
C         53.61005       18.62808       79.60295
C         54.35237       17.33961       79.79753
O         54.18533       16.63560       80.93886
O         54.93542       16.83036       78.85645
H         51.76754       20.38140       79.83384
H         52.76570       18.37471       81.56942
H         54.21620       19.37306       79.04096
H         52.72580       18.36879       78.98110
N         55.02108       19.22097       82.66204
C         56.14567       19.78723       83.40556
C         57.44714       18.99773       83.28346
O         58.43349       19.50059       83.80534
C         55.70104       19.93572       84.87680
C         54.77178       21.15201       85.00385
C         53.95101       21.15635       86.29318
C         53.20575       22.49431       86.42010
N         52.21673       22.45575       87.49396
H         54.66134       18.30908       82.96400
H         56.41329       20.79223       83.00855
H         56.55727       20.10568       85.56597
H         55.20038       18.99082       85.18840
H         54.04159       21.17718       84.16748
H         55.40873       22.06280       84.93482
H         54.59205       21.00828       87.18916
H         53.22374       20.31605       86.22955
H         52.68121       22.73547       85.46863
H         53.95042       23.29895       86.61856
H         52.66327       22.18509       88.39914
H         51.78551       23.40366       87.59044
H         51.46468       21.77106       87.24771
N         57.57449       17.81698       82.60103
C         58.88224       17.17812       82.38503
C         59.21602       16.99820       80.89643
O         60.27851       16.46910       80.60026
C         59.03201       15.89252       83.23068
C         58.13034       14.74884       82.88898
O         57.34827       14.82098       81.96176
O         58.20361       13.61430       83.61086
H         56.73629       17.36562       82.20782
H         59.69250       17.83226       82.77450
H         58.86021       16.16336       84.29566
H         60.07903       15.52770       83.14336
N         58.41584       17.50395       79.90893
C         58.79805       17.55672       78.50081
C         58.73263       16.25538       77.71700
O         58.97794       16.31492       76.52029
H         57.55528       18.00832       80.16429
H         59.81096       18.00586       78.41102
H         58.08994       18.24598       77.98945
N         58.38142       15.06080       78.27233
C         58.22620       13.82699       77.48048
C         57.04854       13.87560       76.48970
O         56.86265       12.90160       75.77090
C         58.09505       12.58758       78.41216
C         56.93609       12.66686       79.36356
O         56.76773       11.81407       80.21976
O         56.15168       13.74855       79.32479
H         58.23508       15.02561       79.28963
H         59.15669       13.67197       76.89204
H         59.02203       12.52112       79.02109
H         58.01228       11.65955       77.80689
N         56.22038       14.95508       76.37630
C         55.10437       15.02765       75.44856
C         53.99385       14.07817       75.83008
O         53.53089       13.32950       74.99043
H         56.37432       15.78767       76.95811
H         55.44761       14.86293       74.40306
H         54.67143       16.05100       75.50132
N         53.47911       14.14575       77.09126
C         52.31624       13.39145       77.58032
C         51.80841       14.01278       78.89047
O         52.49133       14.80917       79.50135
C         52.59450       11.87479       77.81238
C         52.82047       11.01738       76.56049
O         53.65872       11.69668       78.70886
H         53.90247       14.85311       77.69938
H         51.49349       13.53094       76.84655
H         51.68086       11.44449       78.27846
H         54.48958       11.95933       78.23433
H         52.88117        9.94819       76.85665
H         51.97271       11.13570       75.85297
H         53.77893       11.25602       76.06232
N         50.54142       13.74006       79.32352
C         49.94762       14.39223       80.49144
C         49.38610       13.32550       81.41820
O         48.60135       12.50492       80.97229
C         48.84891       15.39732       80.02458
C         49.47564       16.46378       79.08077
C         48.18908       16.08144       81.24063
C         48.46229       17.43582       78.47432
H         49.94821       13.11933       78.75823
H         50.69920       14.99422       81.04671
H         48.06757       14.83809       79.46451
H         49.96293       15.95522       78.22311
H         50.25435       17.04395       79.62501
H         48.93977       16.65667       81.82454
H         47.37483       16.76576       80.93301
H         47.71789       15.33064       81.90036
H         48.98739       18.12237       77.77682
H         47.68990       16.87613       77.90571
H         47.97532       18.06079       79.24861
N         49.70352       13.33084       82.74763
C         49.11503       12.40002       83.70832
C         47.93961       13.07121       84.39547
O         47.67173       14.22760       84.13144
C         50.16859       11.94678       84.75574
C         51.40119       11.31917       84.10948
O         50.57153       13.04460       85.53150
H         50.28158       14.09566       83.11189
H         48.72362       11.50414       83.17978
H         49.69132       11.18344       85.41307
H         50.91073       12.68712       86.39359
H         51.92133       12.07474       83.48792
H         52.10633       10.98034       84.89891
H         51.11633       10.44747       83.48533
N         47.17799       12.39232       85.29336
C         46.07491       13.01774       86.02264
C         46.59095       14.16342       86.88788
O         46.03476       15.25139       86.82472
C         45.30979       11.96993       86.86675
C         44.59964       10.95375       85.95404
O         46.18812       11.31129       87.74276
H         47.40249       11.40317       85.46986
H         45.33503       13.43702       85.30264
H         44.52828       12.50693       87.45270
H         45.62993       10.75523       88.34661
H         43.88993       11.47883       85.27828
H         45.32293       10.38604       85.33267
H         44.01943       10.23060       86.56412
N         47.69088       13.99871       87.67476
C         48.27583       15.05099       88.51006
C         48.61527       16.29394       87.70300
O         48.17922       17.37564       88.07087
C         49.57368       14.54137       89.17678
C         49.31062       13.43823       90.21625
C         50.60472       12.87340       90.82543
C         51.42266       12.04682       89.81532
N         52.60179       11.46031       90.45028
H         48.15674       13.07907       87.64567
H         47.55649       15.34280       89.30808
H         50.07644       15.38248       89.70505
H         50.25414       14.18429       88.37761
H         48.73064       12.59672       89.78375
H         48.70233       13.88616       91.03234
H         50.31652       12.20020       91.66152
H         51.22144       13.69951       91.24305
H         51.75531       12.67724       88.96475
H         50.78362       11.22857       89.41382
H         53.23486       12.21647       90.79813
H         52.31520       10.84382       91.24509
H         53.11693       10.88363       89.74610
N         49.40474       16.20879       86.59802
C         49.83240       17.36462       85.81014
C         48.62543       18.14899       85.32287
O         48.57180       19.35020       85.54709
C         50.73958       16.92570       84.63266
C         52.02780       16.23485       85.13729
C         52.94611       15.81367       84.02725
O         54.22701       16.22233       84.02842
O         52.56358       15.04713       83.15960
H         49.70186       15.26954       86.30767
H         50.44522       18.03978       86.44953
H         51.03064       17.82507       84.04649
H         50.17575       16.24322       83.96373
H         51.78281       15.32283       85.71141
H         52.57624       16.92524       85.81436
N         47.58628       17.51466       84.71599
C         46.36424       18.17187       84.30134
H         45.51248       17.75169       84.87920
H         46.39288       19.26802       84.47129
H         46.19035       17.98053       83.22268
H         47.63860       16.50186       84.58376
Ca        54.89090       14.53846       80.94862
O         54.99940       12.95122       83.84198
H         55.56057       13.41950       84.50945
H         54.99853       12.00625       84.13746
O         53.41501       11.74904       81.46164
H         52.57005       11.37981       81.10004
H         53.74261       11.05215       82.08340

Ca 1.0



