%chk=holoCaM-CaMKII.loop1.water2.frame209.chk
%nprocshared=20
%mem=10GB
%nosave
#b3lyp/svp scf=(tight,noincore,xqc) Test 
#IOP(5/87=12) Density=Current Pop=(MK,readradii) iop(6/33=2) iop(6/42=6)

holoCaM-CaMKII.loop1.water2.frame209 

   0  1 
C         32.78771       68.81450       33.72031
C         31.82795       69.38945       34.71367
O         31.71087       70.60266       34.79970
H         33.56159       68.22571       34.25666
H         32.24221       68.15165       33.01718
H         33.28703       69.62271       33.14528
N         31.11034       68.56035       35.51965
C         30.17537       69.04427       36.52924
C         30.93885       69.92547       37.50356
O         31.89914       69.44770       38.09291
C         29.51550       67.83073       37.21674
C         28.42563       68.15659       38.18907
O         28.09628       69.30632       38.42706
O         27.78832       67.14120       38.79325
H         31.25039       67.54275       35.41129
H         29.37627       69.62762       36.01927
H         30.28909       67.22991       37.74217
H         29.05480       67.19381       36.42954
N         30.61248       71.24412       37.65920
C         31.46082       72.19215       38.37928
C         30.83894       72.68191       39.67754
O         31.57342       73.23779       40.48265
C         31.79517       73.36271       37.41998
C         32.78292       74.42071       37.94343
C         34.17610       73.83839       38.21261
C         35.15693       74.92867       38.65814
N         36.48020       74.36011       38.91193
H         29.77367       71.60542       37.18408
H         32.39801       71.67337       38.66748
H         30.84472       73.88146       37.16376
H         32.21122       72.94513       36.47647
H         32.38346       74.91024       38.85569
H         32.87505       75.20747       37.16239
H         34.55853       73.36506       37.28157
H         34.11853       73.07025       39.01079
H         34.78020       75.41132       39.58745
H         35.23681       75.70573       37.86531
H         36.85337       73.91568       38.04156
H         37.13062       75.12249       39.20918
H         36.42339       73.64639       39.67461
N         29.52103       72.49415       39.97682
C         28.93909       72.86541       41.26620
C         28.38146       71.64533       42.00526
O         27.85094       71.81777       43.09368
C         27.90434       74.00226       41.10015
C         26.67710       73.67860       40.29721
O         26.52406       72.58612       39.78173
O         25.72307       74.61741       40.15366
H         28.90445       72.06180       39.27576
H         29.72112       73.29094       41.93336
H         28.40804       74.87321       40.62491
H         27.57073       74.32036       42.11160
N         28.53695       70.37521       41.51953
C         28.16479       69.17482       42.25773
C         26.68650       68.81740       42.23928
O         26.34425       67.79498       42.81594
H         29.05684       70.22732       40.64458
H         28.54311       69.25303       43.29968
H         28.68477       68.31384       41.78408
N         25.75750       69.56709       41.58298
C         24.33032       69.22170       41.49817
C         24.00955       67.95536       40.68075
O         22.83441       67.62915       40.57981
C         23.52859       70.43097       40.95335
C         23.97217       70.92462       39.59655
O         23.46729       71.93422       39.13400
O         24.98101       70.31115       38.94231
H         26.07385       70.44565       41.15556
H         23.95332       69.04735       42.53118
H         23.66490       71.26842       41.67248
H         22.44372       70.18673       40.93060
N         24.96851       67.17256       40.10573
C         24.67464       65.90573       39.44269
C         24.36924       66.01102       37.95732
O         24.14528       64.96915       37.35758
H         25.95330       67.40077       40.25973
H         23.85967       65.37235       39.98132
H         25.57396       65.25725       39.52130
N         24.34125       67.19973       37.28733
C         24.10030       67.30874       35.84301
C         25.16429       68.16619       35.16192
O         26.03666       68.69891       35.82850
C         22.67579       67.86041       35.58699
C         21.62345       66.76838       35.81591
O         22.42913       68.95485       36.42860
H         24.48054       68.07111       37.81639
H         24.17472       66.31362       35.35127
H         22.58251       68.17383       34.52363
H         21.55809       69.34527       36.15698
H         20.61022       67.16952       35.60231
H         21.80596       65.92464       35.11434
H         21.65101       66.38846       36.85723
N         25.17038       68.28673       33.79941
C         26.14477       69.06778       33.03740
C         25.40523       70.04928       32.13684
O         24.67533       69.61802       31.25422
C         27.05215       68.09726       32.21810
C         27.95324       67.29953       33.19968
C         27.91115       68.84442       31.17407
C         28.74293       66.16636       32.54548
H         24.46319       67.76358       33.26059
H         26.80529       69.64979       33.71573
H         26.39172       67.39361       31.66249
H         27.32610       66.82791       33.98441
H         28.66136       67.99722       33.70095
H         28.58455       69.57915       31.66218
H         28.51491       68.13816       30.57084
H         27.26720       69.37580       30.44369
H         28.04447       65.43372       32.08865
H         29.44689       66.53861       31.77595
H         29.34212       65.64677       33.32306
N         25.56807       71.39490       32.29880
C         24.94673       72.38733       31.42279
C         25.78482       72.58108       30.15695
O         26.86429       72.01463       30.05164
C         24.77495       73.74622       32.16508
C         23.95142       73.60582       33.44544
O         26.02633       74.27815       32.49819
H         26.15264       71.72668       33.07742
H         23.92765       72.03722       31.14472
H         24.24179       74.44877       31.48460
H         25.89559       75.24579       32.67755
H         23.82479       74.60184       33.92154
H         22.94957       73.18372       33.22684
H         24.48478       72.95465       34.16543
N         25.35296       73.41258       29.16453
C         26.15822       73.76454       27.99018
C         27.44315       74.45083       28.41972
O         28.49981       74.10914       27.91175
C         25.38005       74.69590       27.02436
C         24.22317       73.95396       26.34418
O         24.90092       75.82426       27.71204
H         24.42518       73.84833       29.27287
H         26.42602       72.84912       27.41474
H         26.08447       75.01998       26.22184
H         24.56567       76.46138       27.02864
H         23.48278       73.59222       27.08603
H         23.71151       74.63181       25.62818
H         24.61688       73.08702       25.77073
N         27.41382       75.42666       29.36632
C         28.59173       76.12500       29.87446
C         29.59083       75.14819       30.49161
O         30.76071       75.19427       30.13851
C         28.11865       77.19202       30.88760
C         29.24335       78.09522       31.41310
C         28.71581       79.20872       32.34325
C         27.76264       80.23033       31.68168
N         28.40166       80.96352       30.58667
H         26.49348       75.67425       29.76247
H         29.08320       76.66741       29.03567
H         27.60414       76.70778       31.74560
H         27.38273       77.82471       30.34994
H         29.79951       78.54732       30.56621
H         29.95849       77.47097       31.99075
H         29.58691       79.76522       32.75080
H         28.18571       78.73791       33.19997
H         27.44746       80.95924       32.46073
H         26.83757       79.73850       31.31376
H         29.26794       81.43939       30.92844
H         28.63326       80.32139       29.79612
H         27.73865       81.68951       30.23030
N         29.18412       74.21967       31.40389
C         30.06780       73.25668       32.06948
C         30.79474       72.31324       31.11287
O         31.69488       71.62362       31.57231
C         29.26449       72.46126       33.13790
C         28.92400       73.39296       34.31894
C         28.06918       72.82746       35.42182
O         27.44303       71.63951       35.33881
O         27.92435       73.49182       36.43418
H         28.18908       74.21092       31.64247
H         30.87100       73.82978       32.58450
H         29.86520       71.62184       33.53843
H         28.36315       72.02388       32.66228
H         28.41516       74.31099       33.96177
H         29.89458       73.68738       34.77319
N         30.50527       72.24943       29.78336
C         31.27064       71.47460       28.82668
H         32.13958       70.96196       29.28967
H         30.61730       70.71868       28.34605
H         31.66047       72.15957       28.04209
H         29.71611       72.78148       29.41299
Ca        26.23150       71.03064       37.17615
O         23.32487       71.58718       35.87358
H         23.34300       71.22017       36.78903
H         22.66605       72.32392       35.91890
O         25.13424       74.11656       36.75137
H         25.59632       74.57337       36.00426
H         25.59980       74.44252       37.56093

Ca 1.0



