%chk=holoCaM.loop1.water1.frame181.chk
%nprocshared=20
%mem=10GB
%nosave
#b3lyp/svp scf=(tight,noincore,xqc) Test 
#IOP(5/87=12) Density=Current Pop=(MK,readradii) iop(6/33=2) iop(6/42=6)

holoCaM.loop1.water1.frame181 

   0  1 
C         10.92435       86.87752       91.74963
C         10.85022       88.31842       92.15654
O         10.26330       88.62540       93.18507
H         10.40177       86.23006       92.48520
H         10.46338       86.74459       90.75002
H         11.99056       86.56524       91.70298
N         11.48153       89.26179       91.40694
C         11.56773       90.65456       91.81687
C         10.23008       91.37244       91.67809
O          9.72552       91.45087       90.56626
C         12.65925       91.37449       90.99287
C         13.05908       92.67540       91.61719
O         12.44449       93.09113       92.73425
O         14.02102       93.28955       91.18899
H         12.00596       88.94932       90.57432
H         11.91803       90.64861       92.86877
H         12.35249       91.51037       89.93363
H         13.57404       90.74220       91.01469
N          9.59973       91.93390       92.75545
C          8.32400       92.63823       92.62239
C          8.43425       93.94274       91.83571
O          7.38874       94.46328       91.46859
C          7.71167       93.03449       93.99301
C          7.33949       91.86660       94.91459
C          6.56993       92.39942       96.13902
C          6.15741       91.27815       97.10036
N          5.32026       91.80256       98.18180
H         10.02188       91.83312       93.68912
H          7.61004       91.95955       92.10477
H          6.76883       93.59130       93.78982
H          8.40396       93.72051       94.53214
H          8.25331       91.32985       95.23375
H          6.68145       91.16039       94.36421
H          5.64950       92.91141       95.77944
H          7.19084       93.14000       96.69076
H          7.06875       90.80434       97.52824
H          5.58165       90.50451       96.54626
H          5.82990       92.54451       98.71427
H          4.43596       92.20029       97.78739
H          5.07214       91.02455       98.83466
N          9.61694       94.61562       91.69182
C          9.67164       96.00764       91.24492
C         10.61156       96.26704       90.08303
O         10.63910       97.40544       89.63193
C         10.15054       96.87962       92.42561
C          9.32738       96.67522       93.66485
O          9.91098       96.20893       94.78602
O          8.13315       96.92502       93.66359
H         10.48002       94.19724       92.05001
H          8.66200       96.35365       90.93361
H         10.12047       97.95553       92.14663
H         11.20378       96.61202       92.66114
N         11.45179       95.32280       89.56978
C         12.42287       95.66708       88.54164
C         13.42077       96.70741       89.02769
O         14.01720       97.37555       88.19531
H         11.43665       94.35651       89.92397
H         11.87730       96.06006       87.65624
H         12.98771       94.76612       88.21833
N         13.70656       96.84483       90.35752
C         14.68913       97.78875       90.88495
C         16.00185       97.09377       91.22510
O         16.90499       97.76070       91.71211
C         14.10757       98.58076       92.08554
C         13.76645       97.76741       93.30884
O         13.92969       96.56143       93.33537
O         13.27646       98.38582       94.39928
H         13.26269       96.19558       91.02080
H         14.94427       98.54555       90.10983
H         13.18894       99.11100       91.75542
H         14.84988       99.34845       92.39620
N         16.21840       95.78070       90.91317
C         17.50866       95.13938       91.08208
C         17.87041       94.80285       92.51093
O         19.00015       94.37890       92.70818
H         15.49023       95.23761       90.43187
H         18.28715       95.78688       90.62216
H         17.51358       94.17543       90.52854
N         16.98644       94.91109       93.54866
C         17.31723       94.49726       94.91100
C         16.31816       93.40798       95.37550
O         15.19145       94.00298       95.95528
C         17.36574       95.71814       95.87064
C         18.49940       96.68189       95.50809
O         16.13959       96.41058       95.91320
H         16.03676       95.25757       93.36633
H         18.32693       94.03446       94.92266
H         17.57718       95.33969       96.89416
H         16.00940       96.86326       95.03999
H         18.52420       97.51558       96.24078
H         19.47358       96.15062       95.53867
H         18.34892       97.10388       94.49158
N         16.90738       92.45634       96.32592
C         15.97344       91.36905       96.70216
C         15.86420       91.42091       98.21169
O         16.85448       91.20052       98.89563
C         16.43501       89.96633       96.18104
C         16.57134       89.90196       94.63145
C         15.51365       88.83570       96.68012
C         15.26777       90.08294       93.84170
H         17.82465       92.08483       95.98809
H         14.95932       91.55421       96.28207
H         17.44560       89.76672       96.60170
H         16.99783       88.91229       94.35548
H         17.29278       90.67064       94.28624
H         15.88742       87.85012       96.32884
H         15.48726       88.80581       97.78852
H         14.47817       88.96962       96.31302
H         15.49015       90.01822       92.75538
H         14.53702       89.28198       94.07621
H         14.80886       91.07222       94.03750
N         14.68779       91.78039       98.79478
C         14.53651       91.99654      100.23050
C         14.21658       90.69011      100.93036
O         14.16202       89.66163      100.27768
C         13.41775       93.04509      100.49657
C         13.71219       94.39180       99.80566
O         12.15120       92.53653      100.14583
H         13.89104       91.99751       98.18037
H         15.47593       92.42261      100.64814
H         13.38184       93.27174      101.58196
H         11.93349       92.81531       99.22274
H         13.75311       94.28103       98.70160
H         12.91362       95.12314      100.05080
H         14.68556       94.79653      100.15384
N         13.94478       90.66041      102.26249
C         13.42333       89.47417      102.93782
C         12.07025       89.09132      102.34333
O         11.84644       87.91931      102.07648
C         13.27307       89.71106      104.46118
C         14.63263       89.94890      105.13087
O         12.41997       90.80006      104.70864
H         14.04565       91.53244      102.80221
H         14.12948       88.62101      102.81581
H         12.83641       88.78114      104.89843
H         12.06799       90.68770      105.63019
H         14.49670       90.06555      106.22655
H         15.30320       89.08084      104.95370
H         15.12250       90.86450      104.74024
N         11.13152       90.05292      102.08739
C          9.78685       89.77709      101.56779
C          9.78130       89.15442      100.16681
O          8.70715       88.81562       99.68668
C          8.93126       91.07396      101.48910
C          8.91107       91.97333      102.74014
C          8.46004       91.26972      104.02296
C          8.51887       92.25670      105.19927
N          8.10731       91.62144      106.44856
H         11.39268       91.02208      102.30035
H          9.29874       89.07167      102.27529
H          7.88465       90.78802      101.24049
H          9.31491       91.70704      100.65781
H          8.22816       92.82625      102.53253
H          9.91494       92.41182      102.90665
H          9.13849       90.41777      104.24294
H          7.42458       90.88619      103.89555
H          7.85519       93.12587      104.99269
H          9.56134       92.63305      105.31119
H          8.17570       92.32150      107.22256
H          7.11771       91.29254      106.37391
H          8.73669       90.81493      106.66593
N         10.92441       88.99666       99.44403
C         10.98955       88.46761       98.09029
C         11.71036       87.13378       98.11336
O         11.13156       86.14186       97.69297
C         11.72388       89.48319       97.19263
C         10.92431       90.78204       97.02496
C         11.70249       91.79427       96.23569
O         11.93788       93.01887       96.74106
O         12.12751       91.51329       95.13048
H         11.81558       89.28592       99.85286
H          9.97345       88.29140       97.66924
H         11.88756       89.04057       96.18467
H         12.71324       89.71869       97.64101
H         10.66798       91.21806       98.01273
H          9.98147       90.54681       96.49319
N         12.96869       87.02541       98.61837
C         13.66852       85.76483       98.70738
H         14.65909       85.92024       99.18705
H         13.08542       85.05296       99.32985
H         13.82234       85.34224       97.69332
H         13.44508       87.85917       98.97121
Ca        13.66361       93.97743       94.33701
O         12.40430       96.06065       96.84697
H         11.65612       96.36332       97.42078
H         13.20268       96.51107       97.22114

Ca 1.0



