%chk=holoCaM.loop1.water2.frame222.chk
%nprocshared=20
%mem=10GB
%nosave
#b3lyp/svp scf=(tight,noincore,xqc) Test 
#IOP(5/87=12) Density=Current Pop=(MK,readradii) iop(6/33=2) iop(6/42=6)

holoCaM.loop1.water2.frame222 

   0  1 
C         27.55442       69.06850       46.60143
C         26.31563       69.56022       47.27969
O         25.99857       70.73168       47.12288
H         28.42135       69.66306       46.96177
H         27.73966       67.99753       46.82117
H         27.45253       69.20406       45.50470
N         25.57377       68.73698       48.07854
C         24.43635       69.23871       48.82876
C         24.93585       69.70328       50.19002
O         25.44530       68.88654       50.94525
C         23.32188       68.17616       48.96043
C         22.07720       68.79222       49.53444
O         21.12618       68.09779       49.84643
O         22.01321       70.12860       49.67160
H         25.89355       67.77050       48.24513
H         24.00622       70.09255       48.26456
H         23.67822       67.35623       49.62159
H         23.06213       67.73909       47.97310
N         24.88550       71.02234       50.53467
C         25.60830       71.56707       51.68112
C         24.84149       71.55150       52.99420
O         25.47863       71.81998       54.00360
C         26.09160       73.00408       51.35682
C         27.11581       73.06085       50.20238
C         28.44577       72.39967       50.60243
C         29.49896       72.47037       49.49590
N         30.74139       71.83919       49.94509
H         24.52014       71.68195       49.83642
H         26.48882       70.92551       51.87607
H         26.56192       73.46957       52.24967
H         25.20357       73.62046       51.08930
H         27.31529       74.13000       49.96965
H         26.70100       72.58607       49.28666
H         28.29343       71.32838       50.83384
H         28.83891       72.91233       51.50796
H         29.69863       73.53163       49.22949
H         29.12170       71.94086       48.59264
H         31.11947       72.34595       50.77896
H         30.56710       70.83858       50.19763
H         31.44817       71.87515       49.17660
N         23.51003       71.27393       53.09288
C         22.81183       71.22985       54.38516
C         22.09534       69.89732       54.62320
O         21.43764       69.76748       55.64639
C         21.90171       72.46941       54.57084
C         20.94215       72.68701       53.44707
O         20.98758       73.72371       52.80438
O         20.14322       71.69615       53.03582
H         22.96669       71.11499       52.23135
H         23.53423       71.30410       55.22594
H         22.55731       73.36851       54.63020
H         21.35999       72.39105       55.53587
N         22.24133       68.83575       53.77937
C         21.68891       67.51461       54.03720
C         20.17976       67.47428       54.01578
O         19.59371       66.87359       54.90534
H         22.82856       68.92510       52.93832
H         22.07633       67.11187       55.00066
H         22.04318       66.83304       53.23342
N         19.49083       68.03054       52.98152
C         18.04850       67.88055       52.79207
C         17.75708       67.07562       51.52327
O         16.59856       66.95270       51.15073
C         17.34155       69.25801       52.81659
C         17.67424       70.18629       51.68731
O         18.42422       69.84107       50.79582
O         17.11565       71.41048       51.64509
H         20.02622       68.54411       52.26576
H         17.60064       67.30808       53.63292
H         17.58986       69.76382       53.77476
H         16.24240       69.09707       52.79031
N         18.76035       66.43231       50.85193
C         18.55762       65.56428       49.70690
C         18.32152       66.27116       48.38652
O         18.26644       65.56834       47.38993
H         19.71965       66.45845       51.22387
H         17.75155       64.83043       49.92275
H         19.49739       64.98631       49.56066
N         18.19823       67.62846       48.27505
C         18.08088       68.30876       46.98308
C         19.17422       69.35939       46.81669
O         19.82761       69.72795       47.77599
C         16.67805       68.93720       46.80012
C         15.57081       67.87530       46.74613
O         16.40359       69.88935       47.79665
H         18.19962       68.20153       49.12042
H         18.22725       67.57550       46.16122
H         16.65282       69.46069       45.81939
H         16.22289       69.40793       48.64608
H         14.58988       68.36717       46.57375
H         15.76103       67.16864       45.91052
H         15.51983       67.30300       47.69641
N         19.44896       69.83853       45.56875
C         20.49666       70.81057       45.25726
C         19.86127       71.96705       44.49692
O         19.15141       71.73058       43.53189
C         21.62897       70.10885       44.44317
C         22.34078       69.07672       45.36475
C         22.64732       71.13398       43.90028
C         23.43759       68.25360       44.68755
H         18.91459       69.45221       44.77726
H         20.97220       71.21326       46.17953
H         21.17642       69.58737       43.57100
H         21.59487       68.35550       45.75954
H         22.79249       69.61075       46.22875
H         23.14616       71.67013       44.73230
H         23.41912       70.64095       43.27668
H         22.15169       71.87267       43.23740
H         23.86346       67.53959       45.42493
H         23.01681       67.67888       43.83686
H         24.27236       68.89148       44.33442
N         20.12230       73.25567       44.86622
C         19.52565       74.42424       44.21496
C         20.57140       75.17603       43.40874
O         21.70650       74.73469       43.33473
C         18.88751       75.36860       45.27941
C         17.89270       74.65169       46.18964
O         19.86211       76.03139       46.04882
H         20.79556       73.41442       45.62704
H         18.72628       74.10896       43.51065
H         18.31225       76.15633       44.75043
H         20.34648       75.36202       46.59054
H         17.43488       75.37859       46.89449
H         17.09091       74.17114       45.59204
H         18.42556       73.88087       46.77563
N         20.24657       76.34600       42.78447
C         21.23261       77.20462       42.13065
C         22.24458       77.71693       43.14358
O         23.41003       77.85904       42.79965
C         20.56733       78.42322       41.44468
C         19.60177       78.01106       40.33207
O         19.87568       79.20720       42.38669
H         19.26903       76.66330       42.82119
H         21.76084       76.62804       41.33781
H         21.37528       79.02028       40.95298
H         20.37986       80.05541       42.49750
H         19.19557       78.91980       39.83974
H         20.13135       77.40222       39.56925
H         18.74937       77.42485       40.73262
N         21.85702       78.02733       44.41711
C         22.77241       78.55038       45.43143
C         23.87739       77.55213       45.78933
O         24.79671       77.92239       46.50518
C         22.03002       78.92502       46.74826
C         20.71970       79.72703       46.60109
C         20.84424       80.99972       45.75884
C         19.46532       81.65884       45.59986
N         19.53851       82.83722       44.73923
H         20.86630       77.90174       44.65022
H         23.23146       79.47048       45.00744
H         22.73639       79.49270       47.39326
H         21.75351       77.99281       47.29047
H         20.35022       79.98486       47.61799
H         19.94237       79.07925       46.14779
H         21.21789       80.73685       44.74761
H         21.55940       81.70360       46.23604
H         19.06915       81.94951       46.59822
H         18.75858       80.92813       45.14394
H         20.17549       83.55110       45.16018
H         19.88508       82.56557       43.79019
H         18.58122       83.24678       44.64184
N         23.81186       76.25445       45.37227
C         24.75539       75.20444       45.72818
C         25.41244       74.57946       44.49979
O         26.30060       73.75857       44.68705
C         23.96470       74.10148       46.45435
C         23.31416       74.58529       47.75675
C         22.32952       73.56227       48.23698
O         21.16528       73.86546       48.43959
O         22.71327       72.29011       48.39334
H         23.00320       75.95769       44.82693
H         25.56196       75.60512       46.38064
H         24.61476       73.22733       46.68276
H         23.16689       73.76313       45.75774
H         22.76754       75.54006       47.60565
H         24.10876       74.74705       48.51633
N         25.01682       74.87256       43.22536
C         25.59371       74.26169       42.04503
H         26.42690       73.56947       42.28565
H         24.80662       73.68906       41.50928
H         25.97721       75.05603       41.37164
H         24.25099       75.53243       43.05593
Ca        20.58676       71.30718       50.89139
O         17.96439       72.39241       48.64609
H         17.05099       72.45954       48.27025
H         18.05143       71.45215       48.93031
O         18.67403       74.38971       50.49555
H         18.80619       73.87280       51.32914
H         19.35504       75.10691       50.53201

Ca 1.0



