%chk=holoCaM.loop4.water3.frame117.chk
%nprocshared=20
%mem=10GB
%nosave
#b3lyp/svp scf=(tight,noincore,xqc) Test 
#IOP(5/87=12) Density=Current Pop=(MK,readradii) iop(6/33=2) iop(6/42=6)

holoCaM.loop4.water3.frame117 

   -3  1 
C        -21.35587       17.59032       11.89999
C        -21.39399       16.10729       12.10422
O        -20.35087       15.53170       12.38319
H        -22.01606       18.07622       12.65049
H        -20.32346       17.97680       12.05268
H        -21.69595       17.84828       10.87875
N        -22.58117       15.42861       12.05228
C        -22.68508       14.04283       12.48841
C        -23.60021       13.17986       11.62386
O        -24.66737       13.61552       11.21740
C        -23.14010       14.03702       13.95401
C        -22.93598       12.69021       14.57310
O        -21.69825       12.15458       14.50910
O        -23.84871       12.12366       15.14778
H        -23.44716       15.96354       11.88708
H        -21.67005       13.58808       12.47897
H        -24.18804       14.39208       14.05411
H        -22.48039       14.73144       14.51809
N        -23.24400       11.88392       11.40198
C        -23.99169       10.88129       10.65276
C        -24.34664        9.70175       11.56639
O        -25.50074        9.29679       11.56540
C        -23.11754       10.38528        9.45434
C        -22.75481       11.52628        8.46358
C        -23.75963        9.20197        8.69883
C        -23.92703       12.11323        7.67213
H        -22.36042       11.57702       11.81025
H        -24.93672       11.29951       10.24270
H        -22.15707       10.00870        9.87304
H        -22.01615       11.13477        7.72906
H        -22.27166       12.35667        9.01625
H        -23.89740        8.32864        9.36968
H        -24.75202        9.47462        8.28502
H        -23.09783        8.87298        7.86878
H        -24.40377       11.34365        7.03117
H        -24.68456       12.55962        8.34591
H        -23.54568       12.91307        7.00240
N        -23.39494        9.06831       12.32264
C        -23.60934        7.78645       13.00530
C        -23.60872        7.84255       14.53408
O        -23.79913        6.79785       15.14267
C        -22.57270        6.76220       12.48562
C        -21.12794        7.08418       12.79073
O        -20.77947        8.18434       13.47883
O        -20.25214        6.32862       12.40396
H        -22.45200        9.47224       12.35114
H        -24.61256        7.38907       12.73693
H        -22.68252        6.68750       11.38257
H        -22.79869        5.76569       12.92163
N        -23.48043        9.00499       15.22869
C        -23.64452        9.07678       16.67862
C        -22.51836        8.46870       17.49719
O        -22.66221        8.43150       18.71136
H        -23.36743        9.87611       14.70373
H        -24.60368        8.58269       16.94914
H        -23.73409       10.13771       16.98850
N        -21.36733        7.99858       16.93719
C        -20.28758        7.39747       17.71508
C        -19.75459        8.29685       18.82509
O        -19.47371        7.78769       19.90042
C        -19.15687        6.87241       16.81058
C        -18.28521        7.88251       16.10301
O        -18.73204        9.03600       15.55806
O        -17.11592        7.58530       15.91324
H        -21.25963        8.03893       15.91813
H        -20.71045        6.49143       18.20472
H        -19.57245        6.17169       16.05579
H        -18.48068        6.26175       17.45146
N        -19.64608        9.64295       18.65493
C        -19.22193       10.56270       19.70244
C        -18.05606       11.43138       19.28237
O        -17.73385       12.34911       20.02703
H        -19.92610       10.05063       17.75533
H        -18.96141       10.03893       20.64728
H        -20.08078       11.23426       19.91661
N        -17.37673       11.22428       18.11807
C        -16.31180       12.09536       17.63438
C        -16.66282       12.62649       16.25822
O        -17.68401       12.23181       15.70619
C        -14.98521       11.31245       17.54487
C        -14.49684       10.82003       18.91074
C        -13.12276       10.20979       18.79099
N        -12.91137        9.10606       18.03642
O        -12.18475       10.72608       19.38006
H        -17.62100       10.41559       17.52787
H        -16.16981       12.96820       18.31009
H        -14.19705       11.98023       17.13845
H        -15.10412       10.45400       16.84664
H        -15.20438       10.07642       19.33606
H        -14.44300       11.69054       19.60128
H        -13.68691        8.64939       17.53560
H        -11.96514        8.70491       17.95425
N        -15.82074       13.48116       15.61231
C        -16.01709       13.90043       14.23446
C        -14.98177       13.17954       13.40331
O        -13.79935       13.48134       13.51327
C        -15.93025       15.44638       14.09717
C        -15.94304       15.90199       12.62705
C        -17.08689       16.12453       14.84558
H        -14.95181       13.78068       16.08287
H        -17.01559       13.58231       13.87434
H        -14.97036       15.78988       14.54422
H        -15.86163       17.00886       12.57039
H        -15.07194       15.48637       12.07902
H        -16.87522       15.58001       12.11676
H        -17.08515       15.84122       15.91852
H        -16.98980       17.22961       14.78031
H        -18.06123       15.83251       14.39833
N        -15.36181       12.16067       12.58197
C        -14.41963       11.42432       11.75243
C        -13.90313       12.33165       10.65017
O        -14.49181       13.37404       10.40215
C        -15.12570       10.17708       11.16967
C        -14.26360        9.26039       10.34737
N        -13.21052        8.62058       10.90190
O        -14.54359        9.06102        9.17542
H        -16.35218       11.87719       12.57472
H        -13.58192       11.09190       12.40373
H        -15.97988       10.51189       10.55633
H        -15.52512        9.57334       12.00657
H        -12.97687        8.75621       11.89560
H        -12.63950        7.97395       10.33840
N        -12.77540       12.01182        9.96547
C        -12.26095       12.83826        8.88172
C        -13.23762       12.83279        7.70892
O        -13.65429       13.89582        7.27142
C        -10.83105       12.42395        8.44906
C        -10.70562       11.06422        7.80332
C        -10.66186       10.97092        6.40242
C        -10.61890        9.88763        8.56980
C        -10.55817        9.72731        5.77866
C        -10.50906        8.64378        7.94268
C        -10.48282        8.55815        6.54735
O        -10.38080        7.35122        5.95676
H        -12.26329       11.17413       10.25837
H        -12.14664       13.88086        9.25847
H        -10.12102       12.49736        9.30229
H        -10.49784       13.19295        7.71748
H        -10.72425       11.86309        5.79160
H        -10.62043        9.92040        9.64993
H        -10.53761        9.67593        4.69798
H        -10.44199        7.74546        8.54359
H        -10.35900        7.25228        4.99428
N        -13.67018       11.65122        7.18126
C        -14.61936       11.53184        6.07552
C        -15.93532       12.20644        6.41916
O        -16.43383       12.99363        5.62753
C        -14.87730       10.03558        5.77691
C        -15.76315        9.82763        4.53852
C        -16.04007        8.36865        4.32077
O        -16.70734        7.66290        5.25450
O        -15.67949        7.81922        3.29244
H        -13.31923       10.78184        7.60867
H        -14.17887       11.99251        5.16325
H        -15.35538        9.56147        6.66227
H        -13.90445        9.52662        5.59560
H        -15.24719       10.25468        3.65017
H        -16.73867       10.34324        4.66148
N        -16.53293       11.94139        7.61320
C        -17.81208       12.48934        8.05787
C        -17.86854       13.99195        7.86252
O        -18.79903       14.46651        7.22551
C        -18.01483       12.09664        9.53543
C        -19.39042       12.42345       10.10475
C        -19.46708       11.91006       11.51314
O        -18.74729       12.49267       12.48498
O        -20.14630       10.93376       11.77690
H        -16.02469       11.31736        8.25812
H        -18.62590       12.02527        7.45519
H        -17.22217       12.56603       10.15858
H        -17.91939       10.98964        9.59471
H        -20.13488       11.89514        9.48043
H        -19.60700       13.51355       10.09106
N        -16.87309       14.79182        8.33144
C        -16.82974       16.22345        8.11849
H        -15.93006       16.47333        7.51663
H        -17.72349       16.60000        7.57773
H        -16.76407       16.73928        9.09788
H        -16.08231       14.36410        8.82804
Ca       -20.57412       10.34539       15.27049
O        -19.80169       13.83502       15.47116
H        -19.88905       14.07378       14.51523
H        -20.19112       14.59832       15.96305
O        -21.26648       12.21461       17.50828
H        -21.72159       13.03089       17.82915
H        -21.99763       11.64490       17.16485
O        -17.93587        9.38941       12.88796
H        -18.32152        8.54203       12.55392
H        -17.20674        9.10551       13.49389

Ca 1.0



