%chk=holoCaM-CaMKII.loop4.water2.frame280.chk
%nprocshared=20
%mem=10GB
%nosave
#b3lyp/svp scf=(tight,noincore,xqc) Test 
#IOP(5/87=12) Density=Current Pop=(MK,readradii) iop(6/33=2) iop(6/42=6)

holoCaM-CaMKII.loop4.water2.frame280 

   -3  1 
C         32.91161       35.14019       94.88129
C         31.98242       34.44412       95.82912
O         30.85452       34.89112       95.98465
H         33.89536       34.62785       94.82902
H         32.46319       35.13681       93.86465
H         33.06769       36.18730       95.21017
N         32.37203       33.30645       96.46732
C         31.45998       32.54225       97.30116
C         31.15323       33.26910       98.60684
O         32.05256       33.45851       99.41456
C         32.05224       31.15428       97.59274
C         31.05404       30.24667       98.23882
O         31.37859       29.11448       98.52657
O         29.79233       30.64866       98.46955
H         33.31450       32.93030       96.27845
H         30.53343       32.37698       96.70380
H         32.95430       31.25132       98.23744
H         32.35713       30.67507       96.63682
N         29.89039       33.70318       98.87166
C         29.51401       34.38022      100.11150
C         29.52833       33.38810      101.28250
O         30.35438       33.53386      102.17212
C         28.12499       35.09319       99.94181
C         28.21753       36.17296       98.82379
C         27.64242       35.71596      101.26666
C         26.87813       36.81499       98.45336
H         29.18755       33.58282       98.13242
H         30.26134       35.18145      100.31266
H         27.36823       34.34203       99.63686
H         28.60286       35.71835       97.88820
H         28.93105       36.96834       99.13028
H         26.63594       36.16643      101.15281
H         27.53867       34.93980      102.05289
H         28.35242       36.49298      101.61804
H         26.43738       37.37397       99.30140
H         27.03712       37.53574       97.62303
H         26.16063       36.04219       98.10994
N         28.58912       32.40152      101.37663
C         28.45021       31.50631      102.53169
C         29.58680       30.49731      102.73319
O         29.64170       29.93137      103.81720
C         27.09924       30.74184      102.49576
C         26.89899       29.91673      101.25006
O         27.73879       30.05012      100.20917
O         25.94587       29.15982      101.16355
H         27.87114       32.37240      100.64536
H         28.42826       32.15090      103.43897
H         26.25206       31.45625      102.56711
H         27.05052       30.07316      103.38372
N         30.49548       30.17883      101.76666
C         31.62736       29.28899      102.01600
C         31.44434       27.83051      101.60382
O         32.38659       27.08106      101.82204
H         30.43412       30.63639      100.85135
H         31.87912       29.29309      103.09992
H         32.52045       29.70915      101.50523
N         30.29631       27.32119      101.05529
C         30.13183       25.87968      100.78264
C         30.97870       25.33406       99.62178
O         30.84205       24.15781       99.31648
C         28.63576       25.48800      100.63861
C         27.91320       25.99370       99.42748
O         28.54733       26.70891       98.49294
O         26.70704       25.82940       99.33711
H         29.49105       27.95095      100.92356
H         30.44541       25.33315      101.69920
H         28.10577       25.87651      101.53663
H         28.53883       24.38158      100.64380
N         31.88108       26.10077       98.94503
C         32.76669       25.59066       97.90987
C         32.26901       25.84048       96.50190
O         33.01623       25.53257       95.58219
H         32.05266       27.05964       99.24615
H         32.97872       24.51036       98.05950
H         33.74049       26.11818       98.01252
N         31.03894       26.36915       96.23393
C         30.56269       26.63648       94.87981
C         30.11219       28.08142       94.72823
O         30.03342       28.81182       95.70849
C         29.37870       25.70107       94.53089
C         29.76875       24.21663       94.56912
C         28.63917       23.33436       94.09364
N         27.45821       23.28872       94.75417
O         28.79758       22.64503       93.09688
H         30.40321       26.57734       97.01211
H         31.37380       26.45916       94.13997
H         29.02453       25.92856       93.50205
H         28.53797       25.88538       95.23149
H         30.05670       23.91934       95.59995
H         30.64449       24.06507       93.90059
H         27.30109       23.85288       95.60122
H         26.69662       22.68000       94.41747
N         29.75199       28.53728       93.49887
C         29.12897       29.82647       93.23443
C         27.74649       29.53153       92.69513
O         27.62033       28.78731       91.72972
C         29.97400       30.66966       92.23998
C         29.21979       31.93339       91.77815
C         31.29639       31.09868       92.89601
H         29.86714       27.90133       92.69266
H         29.02306       30.42683       94.16673
H         30.19516       30.06060       91.33571
H         29.84479       32.52027       91.07176
H         28.28894       31.66237       91.23712
H         28.95437       32.57920       92.64196
H         31.09879       31.73464       93.78824
H         31.88705       30.21539       93.21360
H         31.90795       31.68824       92.17955
N         26.65891       30.10697       93.26882
C         25.29299       29.86096       92.84098
C         24.84446       30.99221       91.93554
O         25.56662       31.97014       91.79785
C         24.42920       29.72188       94.11985
C         22.98816       29.35361       93.90071
N         22.65600       28.17973       93.31889
O         22.10758       30.10744       94.28640
H         26.80748       30.79972       94.01292
H         25.25359       28.92426       92.24345
H         24.47915       30.68010       94.68461
H         24.87203       28.93524       94.76319
H         23.38455       27.52088       93.00967
H         21.66581       27.92488       93.19016
N         23.67925       30.90794       91.23715
C         23.19617       31.98602       90.37860
C         22.92150       33.22623       91.20890
O         23.21737       34.32703       90.76769
C         21.92642       31.54707       89.62750
C         21.43520       32.62215       88.68621
C         22.25427       33.08785       87.64108
C         20.15439       33.17298       88.84930
C         21.80177       34.09263       86.78268
C         19.70215       34.17482       87.98607
C         20.52621       34.63956       86.95065
O         20.10394       35.60786       86.11341
H         23.11828       30.04660       91.31663
H         23.98020       32.21182       89.62277
H         21.14003       31.28298       90.36916
H         22.15260       30.63593       89.03198
H         23.24525       32.67906       87.49015
H         19.50587       32.82964       89.64554
H         22.44482       34.44626       85.98635
H         18.71224       34.58988       88.12483
H         19.22826       36.01157       86.19488
N         22.42215       33.09209       92.46654
C         22.26453       34.18748       93.41182
C         23.59732       34.89472       93.61150
O         23.66673       36.10438       93.44456
C         21.73884       33.60006       94.74815
C         21.47569       34.64372       95.83984
C         20.91423       33.98176       97.06933
O         19.85304       33.37943       97.01428
O         21.57742       34.05129       98.23931
H         22.19275       32.14140       92.78823
H         21.51202       34.90940       93.02400
H         22.46306       32.85041       95.14073
H         20.78387       33.07075       94.53299
H         20.74735       35.39829       95.47491
H         22.42498       35.15775       96.10345
N         24.69732       34.18386       93.98355
C         25.98667       34.79721       94.30126
C         26.73291       35.29006       93.06037
O         27.76724       35.92432       93.21873
C         26.88816       33.78918       95.05567
C         26.18768       33.18149       96.29048
C         27.02235       32.14342       96.97185
O         27.23118       32.22327       98.29258
O         27.43839       31.17506       96.35889
H         24.58065       33.16816       94.09272
H         25.79602       35.65316       94.98701
H         27.82780       34.29346       95.37516
H         27.15818       32.97461       94.35488
H         25.25650       32.66149       96.00563
H         25.91640       33.98305       97.00757
N         26.30751       35.00061       91.79787
C         27.03374       35.40402       90.61274
H         28.05806       34.97374       90.62929
H         26.51334       35.02593       89.70520
H         27.09084       36.51058       90.55445
H         25.45841       34.44779       91.65736
Ca        27.71490       28.74054       98.41435
O         24.93863       30.14513       98.32447
H         24.39486       30.86102       97.91035
H         24.59208       29.30843       97.92632
O         26.06496       27.27845       96.30034
H         25.35645       27.18056       96.98427
H         26.71402       26.56566       96.51779

Ca 1.0



