%chk=holoCaM.loop2.water0.frame9.chk
%nprocshared=20
%mem=10GB
%nosave
#b3lyp/svp scf=(tight,noincore,xqc) Test 
#IOP(5/87=12) Density=Current Pop=(MK,readradii) iop(6/33=2) iop(6/42=6)

holoCaM.loop2.water0.frame9 

   -2  1 
C        102.85425       26.60928       34.33516
C        103.45659       25.75656       33.25852
O        102.79659       24.85617       32.75926
H        101.81786       26.28562       34.56676
H        103.47060       26.54412       35.25587
H        102.82799       27.66609       33.99214
N        104.72207       26.01324       32.83162
C        105.36014       25.28997       31.73818
C        105.54086       23.82134       32.11322
O        106.11542       23.55269       33.15912
C        106.69650       25.98192       31.37892
C        107.18097       25.63522       29.99709
O        107.28920       26.51156       29.15436
O        107.48654       24.37439       29.66721
H        105.22859       26.79495       33.27733
H        104.69886       25.39336       30.86012
H        107.47170       25.76445       32.14492
H        106.52660       27.08196       31.37175
N        105.06556       22.82056       31.31265
C        105.09501       21.40482       31.67234
C        106.13816       20.60760       30.90214
O        106.32828       19.44711       31.23991
C        103.70051       20.80322       31.45937
H        104.65197       23.06975       30.41129
H        105.36510       21.30099       32.74547
H        102.94635       21.35848       32.05578
H        103.41678       20.86803       30.38494
H        103.67823       19.73556       31.76467
N        106.87902       21.15333       29.89551
C        107.99046       20.46370       29.24556
C        109.31568       21.20014       29.49075
O        110.33086       20.77225       28.95974
C        107.65739       20.20533       27.75971
C        107.41964       21.43562       26.93900
O        106.33391       21.62687       26.41521
O        108.42221       22.29637       26.71712
H        106.67511       22.10987       29.58430
H        108.13377       19.45105       29.68194
H        106.74050       19.57542       27.72821
H        108.47765       19.62358       27.28672
N        109.39734       22.25308       30.36433
C        110.63857       22.89648       30.77463
C        111.34018       23.74617       29.73389
O        112.37822       24.29640       30.07521
H        108.55654       22.55704       30.87131
H        111.33833       22.11877       31.14902
H        110.41061       23.57860       31.62321
N        110.87463       23.91453       28.46434
C        111.60876       24.70096       27.47274
C        111.70805       26.17880       27.83706
O        112.61683       26.83912       27.35350
C        111.02454       24.52599       26.05685
C        109.69518       25.26699       25.81993
N        109.19672       24.97632       24.47716
O        108.73467       24.93590       26.79157
H        110.01899       23.42538       28.18556
H        112.63736       24.27412       27.44204
H        110.91141       23.43972       25.84479
H        111.75748       24.93351       25.32573
H        109.95802       25.13175       23.77779
H        108.45562       25.67416       24.24837
N        110.76674       26.77789       28.62364
C        110.81277       28.17701       29.02246
C        109.73295       29.02147       28.36904
O        109.59299       30.17036       28.76245
H        109.96488       26.22424       28.95740
H        111.78952       28.64609       28.77664
H        110.69907       28.21188       30.12765
N        108.98051       28.55702       27.32816
C        107.97689       29.35210       26.62422
C        106.64087       28.63687       26.63336
O        106.57189       27.47496       26.26985
C        108.40915       29.63514       25.16803
C        109.61858       30.56990       25.11308
O        108.71111       28.44484       24.48563
H        109.15035       27.60720       26.97652
H        107.84492       30.34758       27.10334
H        107.58328       30.18310       24.65098
H        107.88214       28.15338       24.02428
H        109.86980       30.79518       24.05492
H        109.38030       31.53030       25.62117
H        110.50094       30.11047       25.60435
N        105.51910       29.30841       26.99976
C        104.18268       28.72005       27.04175
C        103.77306       28.12187       25.68728
O        103.72016       28.83104       24.69295
C        103.16533       29.79952       27.55175
C        103.44919       30.09439       29.05551
C        101.70194       29.36366       27.36172
C        102.63275       31.24692       29.64161
H        105.62582       30.30268       27.25166
H        104.17882       27.89725       27.78645
H        103.30537       30.72378       26.94739
H        104.51593       30.36254       29.19852
H        103.25346       29.17673       29.65488
H        101.50204       28.44622       27.94194
H        100.99779       30.15768       27.67887
H        101.47867       29.18308       26.29043
H        102.84249       32.18435       29.08536
H        101.54535       31.03628       29.62362
H        102.92250       31.39280       30.70417
N        103.36033       26.81731       25.64128
C        102.67290       26.17363       24.52592
C        101.18275       26.13528       24.85371
O        100.78928       26.63298       25.89524
C        103.20268       24.72862       24.30056
C        104.39071       24.65817       23.37954
O        104.19732       24.42521       22.19636
O        105.66444       24.73486       23.79897
H        103.35793       26.28758       26.51735
H        102.75294       26.76694       23.58860
H        102.42383       24.16334       23.74879
H        103.33445       24.14554       25.23836
N        100.28055       25.60941       23.97682
C         98.83848       25.62879       24.20647
C         98.41630       24.86654       25.47093
O         97.73884       25.49220       26.27567
C         98.07977       25.19207       22.93250
C         96.57956       25.22054       23.10390
C         95.91500       26.40421       23.47539
C         95.82746       24.05434       22.88180
C         94.52590       26.41435       23.62859
C         94.43807       24.07179       23.02850
C         93.78783       25.24988       23.40362
H        100.62661       25.23346       23.08095
H         98.54872       26.69268       24.35957
H         98.39984       24.19064       22.59870
H         98.35120       25.89150       22.11187
H         96.46614       27.31901       23.64969
H         96.31459       23.13205       22.58997
H         94.02152       27.32662       23.91970
H         93.86588       23.17086       22.85030
H         92.71202       25.26078       23.51823
N         98.75894       23.56521       25.76698
C         98.34519       22.86782       26.99297
C         98.81328       23.49079       28.30719
O         98.50309       22.94837       29.35898
C         99.00779       21.48984       26.87107
C         99.06603       21.29636       25.37733
C         99.51300       22.67770       24.90864
H         97.23534       22.78834       26.97189
H        100.06951       21.55665       27.20896
H         98.50634       20.68471       27.45039
H         99.71367       20.46073       25.03859
H         98.02575       21.11909       25.01862
H        100.59790       22.84389       25.09105
H         99.28009       22.75513       23.83742
N         99.58424       24.60864       28.31938
C        100.15471       25.23261       29.49649
C         99.37798       26.50854       29.77094
O         98.90002       26.68473       30.88270
C        101.66018       25.48873       29.23146
C        102.38724       24.18922       28.81248
C        103.82316       24.38349       28.40565
O        104.36935       25.47026       28.48580
O        104.51964       23.33187       27.93626
H         99.83904       25.04664       27.43510
H        100.06642       24.57088       30.38766
H        102.13852       25.93042       30.13273
H        101.75813       26.21232       28.39758
H        101.88300       23.75761       27.92307
H        102.33502       23.44901       29.63925
N         99.13546       27.40582       28.77377
C         98.31017       28.57814       28.95470
H         97.29236       28.27504       29.28229
H         98.76515       29.25617       29.70433
H         98.21406       29.12011       27.98815
H         99.50389       27.23492       27.83255
Ca       106.68388       24.80441       25.79100

Ca 1.0



