%chk=holoCaM-CaMKII.loop2.water2.frame23.chk
%nprocshared=20
%mem=10GB
%nosave
#b3lyp/svp scf=(tight,noincore,xqc) Test 
#IOP(5/87=12) Density=Current Pop=(MK,readradii) iop(6/33=2) iop(6/42=6)

holoCaM-CaMKII.loop2.water2.frame23 

   -2  1 
C         51.32217       46.30113       19.70935
C         51.50541       44.93941       19.09694
O         51.34730       43.94648       19.79022
H         50.28652       46.39467       20.09996
H         52.04298       46.44893       20.53852
H         51.47709       47.10817       18.96036
N         51.81052       44.82389       17.77775
C         51.90615       43.55268       17.07022
C         53.05941       42.67756       17.55112
O         54.19659       43.12712       17.54416
C         52.05545       43.83081       15.56490
C         52.10712       42.55533       14.79146
O         53.05054       42.32696       14.05213
O         51.12811       41.64363       14.94424
H         51.91738       45.69424       17.23261
H         50.94397       43.00906       17.20093
H         52.96955       44.43253       15.36438
H         51.17432       44.41145       15.21978
N         52.82513       41.37640       17.90284
C         53.86312       40.42327       18.28652
C         53.94071       39.20361       17.35614
O         54.82381       38.38409       17.56945
C         53.56470       39.93518       19.70995
H         51.85646       41.03679       17.88849
H         54.85820       40.91688       18.27734
H         52.58063       39.41437       19.73697
H         54.34555       39.22735       20.06047
H         53.52537       40.79432       20.41169
N         53.02709       38.96988       16.36524
C         52.95731       37.71210       15.60957
C         52.71408       37.89021       14.09387
O         52.67575       36.88540       13.39688
C         51.85093       36.83409       16.24024
C         50.57700       37.61164       16.41300
O         50.02761       37.69327       17.49929
O         50.11182       38.29751       15.36384
H         52.24975       39.63051       16.24974
H         53.90930       37.14368       15.70041
H         52.17814       36.47177       17.23902
H         51.67783       35.94073       15.60077
N         52.56869       39.11140       13.50701
C         52.43262       39.33013       12.06790
C         51.12252       38.90324       11.40335
O         51.03007       39.10254       10.19989
H         52.65673       39.94213       14.09256
H         53.28385       38.83591       11.55152
H         52.52469       40.42283       11.87881
N         50.07261       38.33315       12.06823
C         48.82794       37.92040       11.40185
C         47.95145       39.06817       10.86671
O         46.88862       38.76547       10.34028
C         47.98885       36.94937       12.27830
C         47.50032       37.45628       13.63518
N         46.59582       36.49591       14.24882
O         46.89090       38.70256       13.58559
H         50.18354       38.12433       13.06138
H         49.10645       37.29892       10.52163
H         48.60016       36.04343       12.48168
H         47.10531       36.62093       11.68937
H         47.16521       35.70297       14.61772
H         46.13467       36.95260       15.06392
N         48.32538       40.38164       10.89271
C         47.52718       41.43698       10.27541
C         46.31308       41.88267       11.07533
O         45.54371       42.66811       10.53977
H         49.25034       40.63729       11.24669
H         47.21686       41.09862        9.26155
H         48.15569       42.34181       10.13452
N         46.07688       41.46229       12.35215
C         44.92913       41.90480       13.15118
C         45.29988       42.11556       14.61788
O         46.39910       41.77571       15.03133
C         43.77668       40.86653       13.06714
C         43.20277       40.74508       11.65550
O         44.21677       39.59915       13.48339
H         46.75810       40.83443       12.78318
H         44.56739       42.88700       12.77368
H         42.92333       41.19406       13.70449
H         44.24907       39.60968       14.47534
H         42.81680       41.72924       11.31359
H         43.96804       40.37976       10.94037
H         42.35923       40.02196       11.65916
N         44.38858       42.66350       15.47376
C         44.60103       42.76632       16.91350
C         44.21457       41.43723       17.54735
O         43.09158       40.99612       17.34161
C         43.74782       43.92325       17.53756
C         44.07361       45.28464       16.86741
C         43.99464       44.00161       19.06132
C         43.21826       46.44635       17.38977
H         43.47709       42.96484       15.09591
H         45.66416       43.01781       17.12429
H         42.66938       43.70405       17.37001
H         43.87724       45.20814       15.77768
H         45.14740       45.53538       17.00933
H         45.06324       44.21938       19.27761
H         43.36437       44.77042       19.54789
H         43.71407       43.05170       19.54691
H         43.42662       46.66441       18.45677
H         43.45463       47.36841       16.81921
H         42.13794       46.21901       17.26578
N         45.06052       40.79336       18.40205
C         44.66423       39.61970       19.18091
C         44.34133       40.04701       20.59291
O         44.51426       41.20843       20.91004
C         45.77848       38.56143       19.18119
C         45.99252       38.00793       17.81116
O         44.98180       37.37681       17.18442
O         47.08105       38.10340       17.27046
H         45.96594       41.23128       18.61673
H         43.72668       39.17855       18.77666
H         45.50051       37.71060       19.83777
H         46.71958       39.00885       19.57490
N         43.79928       39.17957       21.48970
C         43.38344       39.60970       22.81913
C         44.55822       40.12332       23.65415
O         44.44257       41.24116       24.13589
C         42.56870       38.51349       23.53828
C         42.10135       38.97747       24.89805
C         42.52145       38.30000       26.05453
C         41.25380       40.09421       25.02656
C         42.10686       38.73486       27.31613
C         40.84372       40.52634       26.29055
C         41.27043       39.84780       27.43450
H         43.61979       38.20705       21.19554
H         42.67224       40.45596       22.68389
H         43.15597       37.58575       23.63714
H         41.67904       38.25845       22.92195
H         43.17470       37.43944       25.98090
H         40.91169       40.63416       24.15285
H         42.43725       38.20964       28.20239
H         40.19608       41.38876       26.38266
H         40.95304       40.18443       28.41252
N         45.71667       39.41793       23.87103
C         46.85267       39.93447       24.63366
C         47.26352       41.33218       24.20678
O         47.45133       42.19874       25.04868
C         47.98430       38.94786       24.30272
C         47.22842       37.65625       24.12767
C         46.02135       38.11267       23.31664
H         46.60658       39.90010       25.71872
H         48.42198       39.17840       23.30408
H         48.80942       38.92804       25.04619
H         47.80309       36.82369       23.66906
H         46.87444       37.33822       25.13517
H         46.26457       38.23406       22.23839
H         45.23304       37.35597       23.45235
N         47.38832       41.60693       22.88120
C         47.79062       42.89384       22.32541
C         46.83101       43.99005       22.76355
O         47.27564       45.00146       23.28734
C         47.83092       42.81350       20.77951
C         48.81086       41.73416       20.25812
C         48.80809       41.61201       18.76044
O         49.51330       40.62660       18.17874
O         48.14810       42.36418       18.06401
H         47.15411       40.84358       22.23221
H         48.81761       43.14618       22.67286
H         48.13710       43.80243       20.37202
H         46.81159       42.58238       20.40390
H         48.53110       40.73461       20.64011
H         49.84221       41.95154       20.60648
N         45.48999       43.83750       22.59909
C         44.51878       44.83304       22.98883
H         43.49310       44.44582       22.79874
H         44.61357       45.05858       24.07146
H         44.66398       45.75588       22.39067
H         45.13693       42.96644       22.20285
Ca        48.30981       39.57888       15.08428
O         49.10643       42.26028       13.19096
H         49.98391       41.97432       12.83421
H         48.87186       43.04910       12.64342
O         48.55542       43.77866       15.62595
H         47.71934       44.06894       16.06825
H         48.67591       44.42090       14.88322

Ca 1.0



