%chk=holoCaM-CaMKII.loop1.water2.frame380.chk
%nprocshared=20
%mem=10GB
%nosave
#b3lyp/svp scf=(tight,noincore,xqc) Test 
#IOP(5/87=12) Density=Current Pop=(MK,readradii) iop(6/33=2) iop(6/42=6)

holoCaM-CaMKII.loop1.water2.frame380 

   0  1 
C         66.12038       76.38080       72.87576
C         66.58417       77.05813       74.13028
O         66.23384       78.20447       74.34839
H         65.48887       77.06314       72.26797
H         67.00097       76.07412       72.27343
H         65.52526       75.48019       73.13742
N         67.35506       76.37364       75.01788
C         67.85551       76.90240       76.28704
C         69.01692       77.88546       76.06131
O         70.16378       77.51671       76.27491
C         68.29683       75.69730       77.15368
C         68.67230       76.05455       78.56104
O         68.60430       77.20236       78.97160
O         69.05747       75.07346       79.39109
H         67.55026       75.38461       74.79189
H         67.02398       77.38461       76.84794
H         69.15032       75.17438       76.66909
H         67.45144       74.97795       77.22562
N         68.79708       79.15068       75.60406
C         69.87130       80.08350       75.25610
C         70.69755       80.59942       76.43640
O         71.66935       81.29387       76.17089
C         69.29408       81.27951       74.46203
C         68.78738       80.82726       73.08122
C         68.26071       82.00660       72.25365
C         68.00285       81.62808       70.78345
N         66.98710       80.58557       70.63016
H         67.82989       79.44815       75.43930
H         70.58259       79.55328       74.58422
H         70.09946       82.02438       74.28068
H         68.48769       81.77614       75.04762
H         67.98894       80.06452       73.18958
H         69.64543       80.37097       72.54086
H         69.02799       82.81127       72.24566
H         67.33655       82.41180       72.72111
H         68.95528       81.28695       70.31880
H         67.67040       82.54101       70.24193
H         67.30880       79.68784       71.05695
H         66.08692       80.89060       71.06509
H         66.83187       80.41779       69.60961
N         70.40833       80.32015       77.73988
C         71.22977       80.79541       78.86241
C         71.86938       79.65263       79.64752
O         72.62874       79.93731       80.56397
C         70.41695       81.74737       79.76637
C         69.04820       81.22157       80.08502
O         68.87539       80.02617       80.67113
O         68.06712       81.85730       79.73453
H         69.57713       79.75134       77.95492
H         72.09800       81.38718       78.49723
H         70.28392       82.70780       79.22018
H         70.98278       81.97549       80.69600
N         71.67970       78.34660       79.31338
C         72.38966       77.24712       79.94153
C         72.07657       77.08836       81.40740
O         72.99574       77.05929       82.21310
H         71.05412       78.10244       78.53806
H         73.48396       77.37512       79.79019
H         72.08928       76.30259       79.43683
N         70.79072       76.91633       81.81187
C         70.40367       76.55641       83.17190
C         69.68269       75.20550       83.16624
O         69.03286       74.86478       84.14483
C         69.58644       77.69576       83.82186
C         68.26529       78.01608       83.18824
O         67.84792       77.38417       82.23459
O         67.52555       79.02015       83.69395
H         70.04850       76.98402       81.10207
H         71.29676       76.44155       83.82445
H         70.20834       78.61736       83.80338
H         69.39340       77.43862       84.88567
N         69.82590       74.34965       82.10851
C         69.23222       73.02685       82.02247
C         67.73592       72.99580       81.76516
O         67.22488       71.89164       81.64626
H         70.46692       74.60036       81.34386
H         69.48027       72.45017       82.93961
H         69.69758       72.49892       81.16081
N         66.96091       74.11970       81.67141
C         65.51126       74.06447       81.45726
C         65.06001       74.94068       80.29165
O         65.84609       75.71169       79.76210
C         64.77312       74.48465       82.75180
C         65.07357       73.53602       83.92268
O         65.07275       75.81437       83.09699
H         67.39486       75.03889       81.80127
H         65.20270       73.02457       81.21367
H         63.67762       74.42365       82.57684
H         65.98213       75.83772       83.49390
H         64.77783       72.49857       83.65900
H         66.15461       73.54558       84.17820
H         64.49862       73.85261       84.81813
N         63.77055       74.84774       79.84377
C         63.19563       75.66762       78.77646
C         61.94166       76.34715       79.32311
O         61.11802       75.66691       79.91922
C         62.83864       74.80637       77.52616
C         64.05814       73.96360       77.06636
C         62.35740       75.73324       76.38361
C         63.76181       73.05238       75.87090
H         63.15839       74.13950       80.27671
H         63.92899       76.42815       78.43265
H         62.01837       74.10400       77.79456
H         64.36842       73.30015       77.90164
H         64.91314       74.62718       76.81187
H         61.48437       76.33827       76.69716
H         63.17250       76.42536       76.07577
H         62.02795       75.15763       75.49695
H         64.65263       72.42695       75.65278
H         62.90499       72.38261       76.09759
H         63.54038       73.63839       74.95614
N         61.70329       77.67210       79.10601
C         60.52425       78.37683       79.61654
C         59.56778       78.71320       78.48569
O         59.85035       78.39174       77.34581
C         60.95578       79.66223       80.37200
C         61.86958       79.35136       81.56110
O         61.55927       80.58793       79.49934
H         62.36395       78.19413       78.51861
H         59.95918       77.72916       80.32191
H         60.05760       80.15620       80.79749
H         62.50085       80.31424       79.35360
H         62.79864       78.86060       81.20652
H         62.13916       80.29349       82.08439
H         61.35405       78.67821       82.27763
N         58.39143       79.35337       78.73963
C         57.44536       79.73633       77.69131
C         58.10135       80.67919       76.69234
O         58.06430       80.40211       75.50153
C         56.16105       80.38216       78.28337
C         55.33657       79.38067       79.11209
O         56.44598       81.54852       79.02057
H         58.16845       79.57809       79.71854
H         57.11674       78.82469       77.14216
H         55.50581       80.67992       77.43535
H         56.70382       81.28893       79.94312
H         54.40710       79.86849       79.47479
H         55.05097       78.51078       78.48265
H         55.90581       79.01003       79.98966
N         58.74523       81.80033       77.11868
C         59.39713       82.76145       76.22977
C         60.43026       82.09728       75.33517
O         60.35048       82.28234       74.12834
C         60.03925       83.89748       77.05833
C         58.94827       84.80288       77.66788
C         59.49640       85.93816       78.54344
C         60.04112       85.43349       79.88890
N         60.46834       86.55190       80.72948
H         58.78969       81.96544       78.13581
H         58.63818       83.22423       75.55823
H         60.66287       84.53748       76.39516
H         60.70088       83.45545       77.83376
H         58.21567       84.21805       78.26361
H         58.39798       85.26647       76.81933
H         58.65105       86.62648       78.76311
H         60.27207       86.51056       77.98900
H         60.89841       84.74552       79.73197
H         59.23553       84.87517       80.41733
H         61.25580       87.06490       80.27121
H         59.66903       87.20696       80.89373
H         60.79262       86.18272       81.65241
N         61.41103       81.29755       75.83985
C         62.41901       80.65543       74.99281
C         61.76259       79.81329       73.90791
O         61.99890       80.07854       72.73729
C         63.38941       79.79568       75.83226
C         64.24666       80.65863       76.77505
C         65.20622       79.82580       77.57529
O         66.40699       80.02086       77.48937
O         64.74972       78.88357       78.41842
H         61.42308       81.13253       76.85673
H         63.02110       81.44359       74.48626
H         64.07454       79.26021       75.14330
H         62.81678       79.03649       76.40533
H         63.60692       81.22225       77.48153
H         64.81996       81.39334       76.16810
N         60.90560       78.80574       74.22343
C         60.20953       77.99887       73.24161
H         59.11415       78.13450       73.36859
H         60.47523       78.27381       72.19948
H         60.45792       76.92912       73.40042
H         60.71735       78.60957       75.20903
Ca        66.74630       79.27782       80.60149
O         64.81372       81.57595       80.98999
H         65.45021       82.00720       80.36665
H         64.97969       82.01935       81.85956
O         64.85393       78.76263       82.76321
H         64.66629       79.66858       83.11402
H         64.11496       78.20446       83.11020

Ca 1.0



