%chk=holoCaM.loop4.water3.frame340.chk
%nprocshared=20
%mem=10GB
%nosave
#b3lyp/svp scf=(tight,noincore,xqc) Test 
#IOP(5/87=12) Density=Current Pop=(MK,readradii) iop(6/33=2) iop(6/42=6)

holoCaM.loop4.water3.frame340 

   -3  1 
C        105.29055       32.54905        2.16179
C        106.18060       32.04122        1.06992
O        105.69608       31.34023        0.19285
H        104.24764       32.19420        2.01212
H        105.65539       32.18757        3.14486
H        105.29109       33.65916        2.15006
N        107.50853       32.35256        1.06268
C        108.41492       31.91670        0.00470
C        109.85533       32.27180        0.36210
O        110.13118       33.43016        0.64853
C        108.03770       32.58152       -1.34104
C        108.73781       31.95503       -2.51556
O        108.58481       32.42989       -3.62860
O        109.47141       30.83447       -2.36981
H        107.87943       32.90882        1.84955
H        108.31497       30.81212       -0.09292
H        108.27235       33.66698       -1.28812
H        106.95464       32.48286       -1.55184
N        110.82814       31.31810        0.34364
C        112.21558       31.54608        0.74320
C        113.16207       31.46574       -0.46057
O        114.22596       32.06204       -0.39238
C        112.61259       30.49349        1.83584
C        111.61939       30.51969        3.02947
C        114.05773       30.69283        2.34074
C        111.78030       29.32821        3.98135
H        110.56274       30.37114        0.04884
H        112.32086       32.56800        1.17224
H        112.54378       29.48933        1.35927
H        110.58481       30.45740        2.64638
H        111.71032       31.47431        3.59074
H        114.16641       31.68777        2.82314
H        114.34363       29.91061        3.07104
H        114.79139       30.60749        1.51591
H        111.66208       28.37549        3.42093
H        112.76210       29.33025        4.49354
H        110.99366       29.36951        4.76364
N        112.88350       30.68943       -1.55306
C        113.84268       30.44841       -2.63741
C        113.32847       30.80976       -4.03577
O        114.09054       30.64309       -4.98043
C        114.32321       28.97552       -2.57202
C        113.25875       27.91613       -2.70103
O        112.08349       28.20763       -2.82243
O        113.61063       26.61779       -2.65619
H        111.99385       30.18385       -1.57816
H        114.75249       31.06807       -2.48634
H        114.82243       28.81713       -1.59184
H        115.07970       28.80665       -3.36801
N        112.08870       31.32973       -4.26455
C        111.61186       31.73109       -5.58795
C        111.39673       30.59843       -6.58900
O        111.01296       30.89561       -7.71110
H        111.47416       31.51863       -3.46580
H        112.32696       32.46619       -6.01589
H        110.63282       32.24395       -5.47164
N        111.60053       29.29107       -6.26875
C        111.40646       28.17297       -7.19499
C        109.98975       28.08820       -7.79210
O        109.89011       27.96653       -9.00523
C        111.79877       26.81611       -6.53815
C        111.04858       26.47835       -5.27451
O        110.39049       27.44737       -4.61620
O        111.04247       25.33539       -4.84853
H        111.93110       29.07494       -5.32300
H        112.11008       28.29730       -8.04951
H        112.88521       26.78915       -6.30697
H        111.60096       26.02287       -7.29316
N        108.86158       28.12239       -7.02242
C        107.50725       27.94023       -7.52454
C        106.74399       26.83555       -6.79234
O        105.55655       26.70630       -7.05206
H        108.93702       28.32846       -6.02707
H        107.49177       27.72988       -8.61559
H        106.96079       28.89287       -7.35791
N        107.33403       26.01052       -5.87047
C        106.61735       24.99179       -5.09489
C        106.80207       25.28530       -3.58790
O        106.46832       26.60666       -3.29705
C        107.17272       23.59640       -5.42859
C        106.93116       23.21631       -6.89818
C        107.42028       21.82579       -7.22953
N        107.24593       21.33239       -8.47645
O        107.96796       21.13569       -6.38108
H        108.34250       26.09718       -5.69531
H        105.52787       25.00857       -5.31926
H        106.66090       22.84167       -4.79324
H        108.26284       23.56725       -5.20481
H        107.44649       23.94077       -7.56509
H        105.83929       23.25779       -7.10304
H        106.78208       21.89558       -9.20414
H        107.56998       20.38295       -8.71347
N        106.17204       24.31656       -2.66142
C        106.01303       24.80510       -1.26674
C        106.71790       23.84897       -0.30631
O        106.33690       22.69166       -0.20579
C        104.51022       25.00840       -0.90102
C        104.35489       25.55656        0.52461
C        103.80931       25.97723       -1.87228
H        105.30031       23.88684       -3.04773
H        106.50590       25.79209       -1.14507
H        103.99115       24.02633       -0.95924
H        103.28032       25.67512        0.77877
H        104.79856       24.85788        1.25951
H        104.84959       26.54734        0.61607
H        104.28338       26.98103       -1.83933
H        103.84078       25.60487       -2.91644
H        102.73856       26.08520       -1.59809
N        107.78804       24.29259        0.41673
C        108.58611       23.47766        1.34022
C        107.79038       23.19650        2.62321
O        106.72656       23.76945        2.79650
C        109.87506       24.30570        1.67875
C        111.11470       23.57668        2.16378
N        112.26981       23.66067        1.45903
O        111.11245       22.95375        3.20943
H        108.08598       25.26287        0.25382
H        108.88002       22.55067        0.80206
H        109.61084       25.10666        2.39861
H        110.19435       24.81617        0.74764
H        112.32766       24.20499        0.58578
H        113.12340       23.19360        1.79870
N        108.28855       22.39957        3.60993
C        107.77008       22.39737        4.98296
C        107.90130       23.79610        5.57219
O        106.93955       24.31257        6.12418
C        108.61386       21.45326        5.87326
C        108.32882       19.99422        5.63861
C        107.10081       19.45213        6.05527
C        109.28975       19.15298        5.05712
C        106.84127       18.08832        5.90085
C        109.02247       17.78981        4.89068
C        107.79859       17.25227        5.31833
O        107.53444       15.93738        5.18097
H        109.12699       21.84361        3.40708
H        106.70322       22.08253        5.01924
H        108.40175       21.64065        6.95014
H        109.69194       21.68185        5.71882
H        106.35419       20.08211        6.52381
H        110.24314       19.55049        4.73252
H        105.89812       17.68035        6.24288
H        109.77001       17.15121        4.43788
H        108.17164       15.32230        4.79106
N        109.09036       24.45928        5.48004
C        109.37723       25.76944        6.06282
C        108.51678       26.90549        5.50339
O        108.66668       28.02331        5.97621
C        110.86556       26.15214        5.81661
C        111.93736       25.13593        6.26739
C        111.90532       24.83453        7.73793
O        110.84560       24.20865        8.28396
O        112.86571       25.11113        8.43834
H        109.84416       23.97621        4.98431
H        109.19133       25.70772        7.15560
H        111.07828       27.11846        6.32484
H        111.00786       26.30435        4.72307
H        112.92822       25.56886        6.00525
H        111.85649       24.18139        5.71087
N        107.61859       26.71314        4.49642
C        106.83798       27.77748        3.88079
C        105.37080       27.56145        4.19304
O        104.75184       28.45027        4.76272
C        107.11444       27.78061        2.36216
C        108.60618       28.04082        2.07890
C        108.98558       27.91608        0.62990
O        110.28242       27.99273        0.27974
O        108.14766       27.70460       -0.22953
H        107.49356       25.77747        4.10139
H        107.12400       28.77606        4.28165
H        106.50032       28.56040        1.85998
H        106.83906       26.78770        1.94552
H        109.21845       27.30265        2.63051
H        108.87320       29.05072        2.44351
N        104.75184       26.38954        3.88662
C        103.36856       26.13199        4.21901
H        102.70994       26.85933        3.70063
H        103.08964       25.10442        3.90113
H        103.22299       26.21114        5.31790
H        105.28122       25.64228        3.42393
Ca       108.60632       27.28912       -3.29526
O        106.47814       29.33346       -1.82444
H        105.95554       28.84784       -1.13818
H        105.80547       29.86666       -2.31635
O        110.34610       24.95185       -1.82005
H        110.72265       25.85405       -1.97612
H        109.69110       24.82087       -2.55033
O        107.38306       29.81601       -4.56712
H        107.88112       30.36874       -5.22000
H        106.50249       29.65897       -4.99032

Ca 1.0



