%chk=holoCaM-CaMKII.loop4.water2.frame91.chk
%nprocshared=20
%mem=10GB
%nosave
#b3lyp/svp scf=(tight,noincore,xqc) Test 
#IOP(5/87=12) Density=Current Pop=(MK,readradii) iop(6/33=2) iop(6/42=6)

holoCaM-CaMKII.loop4.water2.frame91 

   -3  1 
C         12.81152       46.56870       49.35764
C         13.92917       45.86806       48.64162
O         15.03675       46.38458       48.61837
H         11.87042       45.97907       49.31529
H         13.08673       46.71124       50.42294
H         12.62652       47.55697       48.88778
N         13.70093       44.68281       48.01562
C         14.72163       43.94647       47.28654
C         14.68622       44.37538       45.82805
O         13.63588       44.30400       45.20564
C         14.49314       42.44187       47.51545
C         15.48158       41.58192       46.79631
O         16.67920       41.71687       46.98014
O         15.03658       40.62793       45.96413
H         12.74049       44.30383       48.01515
H         15.72816       44.17677       47.70439
H         13.46891       42.15469       47.19136
H         14.58235       42.23472       48.60471
N         15.81446       44.87151       45.23813
C         15.85716       45.48001       43.90818
C         16.60136       44.61496       42.89684
O         16.28992       44.73012       41.71885
C         16.50893       46.89760       44.01880
C         15.74984       47.83213       44.99856
C         16.70335       47.58631       42.65368
C         14.31274       48.16494       44.58605
H         16.68481       44.86490       45.78550
H         14.82540       45.57717       43.50760
H         17.53059       46.76350       44.44247
H         16.31433       48.78648       45.08864
H         15.72720       47.37252       46.00950
H         15.73971       47.71544       42.12162
H         17.18294       48.57886       42.79214
H         17.38577       46.99583       42.00793
H         14.28587       48.67500       43.60164
H         13.68641       47.25142       44.54632
H         13.86720       48.85162       45.33570
N         17.56898       43.72534       43.25796
C         18.27921       42.88607       42.28968
C         17.88738       41.41420       42.40774
O         18.41977       40.60865       41.65685
C         19.80592       43.12779       42.34569
C         20.47355       42.80112       43.64891
O         19.76245       42.38959       44.71092
O         21.68396       42.92188       43.74772
H         17.79423       43.62331       44.25408
H         17.98891       43.16480       41.25335
H         20.00947       44.19697       42.11678
H         20.28587       42.51631       41.55022
N         16.87849       41.00639       43.23148
C         16.31660       39.66464       43.19758
C         17.22239       38.59737       43.76171
O         17.49198       37.62444       43.07295
H         16.39524       41.69377       43.82700
H         16.00945       39.42118       42.15734
H         15.39110       39.65069       43.80386
N         17.68432       38.69380       45.03822
C         18.44886       37.65053       45.71885
C         17.78933       37.21925       47.03015
O         18.41113       36.45879       47.76060
C         19.91819       38.08517       45.91219
C         20.09735       39.49181       46.39723
O         20.75250       40.26182       45.71901
O         19.55740       39.93439       47.54525
H         17.47527       39.55347       45.56736
H         18.50840       36.72254       45.10732
H         20.41475       38.02248       44.91711
H         20.44765       37.36915       46.57627
N         16.50743       37.56396       47.36070
C         15.85764       37.05011       48.56043
C         16.32479       37.70838       49.84383
O         15.93945       37.23811       50.90485
H         15.93708       38.12109       46.70939
H         16.01224       35.94981       48.60835
H         14.76185       37.22475       48.49690
N         17.07309       38.84699       49.83315
C         17.44143       39.56918       51.05296
C         17.72718       41.04011       50.76139
O         17.66988       41.44960       49.61474
C         18.60404       38.85476       51.78412
C         19.83797       38.65914       50.88930
C         20.96760       37.99476       51.63747
N         22.17704       38.59484       51.74416
O         20.79414       36.89475       52.14105
H         17.30948       39.25757       48.92039
H         16.55796       39.60032       51.72906
H         18.25686       37.85486       52.12330
H         18.88488       39.43331       52.69063
H         20.16521       39.64236       50.50334
H         19.56968       38.01670       50.02351
H         22.35363       39.51488       51.31746
H         22.94848       38.13282       52.24826
N         17.95460       41.91840       51.77836
C         18.11597       43.35682       51.57553
C         19.46888       43.80023       52.11466
O         19.81559       43.47142       53.24025
C         16.92622       44.11686       52.22517
C         17.06951       45.63988       52.05731
C         15.59808       43.68213       51.57405
H         17.95734       41.56713       52.74798
H         18.07745       43.61475       50.49415
H         16.88495       43.88580       53.31204
H         17.11794       45.91517       50.98156
H         16.20259       46.16219       52.51533
H         17.98287       46.00627       52.56531
H         14.74325       44.22234       52.03357
H         15.60610       43.90458       50.48386
H         15.42272       42.59486       51.70897
N         20.26001       44.60777       51.35320
C         21.57041       45.11583       51.74567
C         21.42542       46.52774       52.28771
O         20.33552       47.07019       52.26523
C         22.47648       45.07179       50.48295
C         23.87966       45.59887       50.62590
N         24.75742       45.02436       51.47783
O         24.23588       46.54632       49.94083
H         19.87233       44.95666       50.46874
H         21.99636       44.48979       52.55950
H         21.97393       45.65653       49.68018
H         22.56091       44.02675       50.14021
H         24.48007       44.21783       52.05426
H         25.71751       45.39118       51.55874
N         22.49182       47.17461       52.82855
C         22.45348       48.55130       53.31109
C         22.11152       49.50698       52.18032
O         21.16645       50.27114       52.31636
C         23.82472       48.90218       53.93114
C         23.96225       50.35794       54.30612
C         23.07202       50.96872       55.20505
C         24.99934       51.12024       53.74207
C         23.21589       52.32298       55.52582
C         25.14531       52.46840       54.06935
C         24.25206       53.07615       54.96143
O         24.38088       54.37904       55.28199
H         23.37935       46.66056       52.90426
H         21.68299       48.64741       54.10863
H         24.62508       48.63817       53.20462
H         23.97651       48.27201       54.83445
H         22.26438       50.40256       55.65107
H         25.69986       50.67109       53.04853
H         22.52117       52.78767       56.21377
H         25.95280       53.03793       53.62692
H         25.08617       54.93020       54.91317
N         22.84539       49.51381       51.03437
C         22.59683       50.41882       49.91554
C         21.15984       50.31599       49.43127
O         20.51549       51.34621       49.29021
C         23.60765       50.13482       48.78318
C         23.49010       51.13761       47.62483
C         24.59027       50.93062       46.62341
O         24.32636       50.65289       45.46477
O         25.87705       51.07451       46.99674
H         23.61851       48.83661       50.95741
H         22.77794       51.46297       50.25766
H         23.48206       49.09782       48.39908
H         24.62797       50.22510       49.21866
H         23.57371       52.17479       48.01468
H         22.50056       51.02351       47.13051
N         20.57670       49.10360       49.21294
C         19.18214       48.95069       48.79106
C         18.25866       49.67095       49.76625
O         17.48746       50.51786       49.33679
C         18.79865       47.45429       48.62635
C         19.67769       46.77997       47.54980
C         19.32200       45.35194       47.24163
O         19.12652       45.01734       46.08587
O         19.29865       44.41872       48.20898
H         21.14463       48.26433       49.39768
H         19.05212       49.42318       47.79157
H         17.73454       47.39397       48.30804
H         18.90401       46.92239       49.59557
H         20.73327       46.77387       47.87979
H         19.61558       47.36814       46.60825
N         18.34250       49.44458       51.10364
C         17.56867       50.18473       52.07667
H         16.48542       49.99972       51.92916
H         17.85337       49.86861       53.10414
H         17.78157       51.27191       51.98104
H         19.01743       48.76038       51.44925
Ca        19.46318       42.19910       47.75858
O         22.11079       43.68638       46.88471
H         22.34525       44.41555       47.51086
H         21.93240       44.15047       46.02980
O         21.65365       41.56900       49.77338
H         21.53304       42.34681       49.17797
H         21.77606       40.80973       49.15073

Ca 1.0



