%chk=holoCaM-CaMKII.loop2.water2.frame140.chk
%nprocshared=20
%mem=10GB
%nosave
#b3lyp/svp scf=(tight,noincore,xqc) Test 
#IOP(5/87=12) Density=Current Pop=(MK,readradii) iop(6/33=2) iop(6/42=6)

holoCaM-CaMKII.loop2.water2.frame140 

   -2  1 
C         14.53441       38.50748       61.24083
C         13.19525       38.94479       60.71667
O         12.68327       38.34174       59.78575
H         15.26604       39.33768       61.15133
H         14.44000       38.22814       62.31289
H         14.91536       37.62743       60.68095
N         12.55336       39.98723       61.30662
C         11.21858       40.44078       60.92537
C         11.21355       41.07983       59.55007
O         12.03287       41.95040       59.28961
C         10.72135       41.46725       61.94838
C          9.26792       41.85088       61.82385
O          8.97276       42.96026       62.23476
O          8.24141       40.98764       61.57531
H         13.02284       40.44280       62.10636
H         10.52235       39.58034       60.97724
H         11.34226       42.38860       61.85413
H         10.88036       41.11259       62.98155
N         10.24531       40.75108       58.65543
C         10.08208       41.38226       57.35463
C          8.75543       42.14002       57.25705
O          8.48197       42.67129       56.18915
C         10.11654       40.28289       56.28385
H          9.55383       40.04397       58.92792
H         10.90835       42.09844       57.15226
H          9.27084       39.57495       56.43491
H         10.03269       40.71908       55.26570
H         11.06709       39.71178       56.34375
N          7.85482       42.18440       58.29100
C          6.46480       42.59823       58.09936
C          5.82177       43.33686       59.29170
O          4.65807       43.69381       59.17225
C          5.66172       41.34088       57.69541
C          5.83051       40.20244       58.65725
O          5.48260       40.35392       59.93575
O          6.29771       39.13849       58.28524
H          8.07347       41.68349       59.15851
H          6.39015       43.30474       57.24386
H          6.02696       40.99410       56.70410
H          4.58537       41.58905       57.59619
N          6.49687       43.65076       60.43563
C          5.93111       44.44685       61.53058
C          4.82191       43.79982       62.35822
O          4.31853       44.46855       63.25022
H          7.48701       43.40623       60.49405
H          5.55046       45.40263       61.10862
H          6.74371       44.69997       62.24510
N          4.37409       42.53402       62.13492
C          3.24897       41.93067       62.85525
C          3.57336       41.46504       64.28614
O          2.68538       40.91904       64.92696
C          2.63235       40.79624       62.00637
C          3.47736       39.56819       61.84313
N          3.01156       38.54270       61.10437
O          4.57317       39.48043       62.37143
H          4.78367       42.01896       61.35643
H          2.43494       42.68683       62.91307
H          2.40175       41.20072       60.99547
H          1.67496       40.47457       62.46913
H          2.10205       38.59915       60.62415
H          3.56376       37.68693       61.02722
N          4.78976       41.67599       64.87114
C          5.08216       41.34519       66.26388
C          5.39509       39.88229       66.55782
O          5.63791       39.58845       67.71983
H          5.50391       42.20547       64.35750
H          4.24526       41.69979       66.90547
H          5.98774       41.91061       66.57182
N          5.42274       38.91639       65.59306
C          5.75865       37.50820       65.85739
C          6.80885       36.98052       64.88755
O          7.10268       37.63673       63.90081
C          4.48655       36.61464       65.76285
C          3.46058       36.98948       66.83334
O          3.88481       36.61957       64.48613
H          5.18824       39.19259       64.63747
H          6.17625       37.40749       66.88365
H          4.78622       35.56463       65.96388
H          4.02217       37.49301       64.04557
H          3.90950       36.85365       67.84162
H          3.12880       38.04280       66.72441
H          2.57449       36.32565       66.75503
N          7.38793       35.75844       65.09031
C          8.24307       35.12337       64.09219
C          7.33791       34.38793       63.11269
O          6.50280       33.60567       63.54613
C          9.26364       34.11868       64.71468
C         10.08216       34.68354       65.90485
C         10.22083       33.59227       63.62057
C         10.98401       35.87754       65.58640
H          7.12318       35.21453       65.92565
H          8.84982       35.89939       63.57346
H          8.69689       33.25263       65.12305
H         10.72671       33.86685       66.30037
H          9.38908       34.97533       66.72083
H          9.66118       33.08279       62.81650
H         10.79143       34.42314       63.15263
H         10.94067       32.85907       64.03896
H         11.52509       36.17526       66.50987
H         11.74684       35.62006       64.82350
H         10.38287       36.74003       65.24077
N          7.49036       34.55314       61.77305
C          6.69247       33.86110       60.76368
C          7.47088       32.66419       60.24140
O          8.58779       32.45423       60.68053
C          6.39362       34.83460       59.60351
C          5.70332       36.09236       60.03848
O          4.66938       36.42796       59.48383
O          6.24773       36.82798       61.04455
H          8.26286       35.14254       61.44878
H          5.74312       33.48576       61.20543
H          5.78799       34.33240       58.82080
H          7.35581       35.14598       59.14904
N          6.93387       31.80467       59.32838
C          7.66887       30.65439       58.80118
C          8.86601       31.06606       57.93679
O          9.94232       30.54667       58.19727
C          6.72968       29.67132       58.06866
C          7.35109       28.29850       57.85942
C          7.42086       27.72274       56.57827
C          7.83077       27.55604       58.96096
C          7.95505       26.43771       56.40731
C          8.37441       26.28205       58.78240
C          8.43331       25.72064       57.50749
H          5.95627       31.95037       59.03289
H          8.04635       30.10238       59.68668
H          6.37379       30.11518       57.11503
H          5.84147       29.50428       58.71461
H          7.04836       28.25676       55.71406
H          7.78474       27.95122       59.96642
H          7.99431       25.99200       55.42196
H          8.74215       25.72695       59.63676
H          8.84456       24.72757       57.37536
N          8.81175       32.01957       56.94145
C          9.98088       32.46904       56.18158
C         10.99987       33.23211       57.02510
O         12.01402       33.64202       56.47792
C          9.38079       33.35409       55.08143
C          8.17502       33.94342       55.77377
C          7.62193       32.73400       56.51927
H         10.50834       31.61358       55.70650
H         10.07732       34.08877       54.62110
H          8.98646       32.69449       54.27686
H          8.54455       34.67918       56.52353
H          7.43907       34.45384       55.11747
H          7.00715       33.13050       57.33717
H          7.02357       32.06914       55.86061
N         10.82073       33.42510       58.35942
C         11.77331       34.08564       59.23688
C         12.40415       33.06761       60.17872
O         13.54276       33.26741       60.57632
C         11.04290       35.17949       60.02701
C         10.28122       36.12361       59.08216
C          9.45823       37.12567       59.81108
O          8.71811       37.85445       59.17615
O          9.48611       37.20367       61.15262
H          9.95522       33.10499       58.79500
H         12.58775       34.55735       58.64386
H         11.75831       35.74839       60.66026
H         10.30876       34.68341       60.69514
H          9.56865       35.53593       58.47135
H         10.98363       36.64754       58.40187
N         11.74313       31.92441       60.53203
C         12.29589       30.87095       61.35019
H         13.32514       31.09505       61.69146
H         11.64106       30.71193       62.23290
H         12.31095       29.93393       60.75219
H         10.79397       31.75153       60.19848
Ca         7.29102       38.88597       61.32042
O          7.38415       40.54488       63.97666
H          7.84960       39.95013       64.61100
H          7.70975       41.44945       64.20792
O          9.94058       38.83547       63.69025
H         10.60389       39.28678       64.26844
H         10.49227       38.38472       63.00741

Ca 1.0



