%chk=holoCaM.loop3.water2.frame274.chk
%nprocshared=20
%mem=10GB
%nosave
#b3lyp/svp scf=(tight,noincore,xqc) Test 
#IOP(5/87=12) Density=Current Pop=(MK,readradii) iop(6/33=2) iop(6/42=6)

holoCaM.loop3.water2.frame274 

   0  1 
C         50.32743       78.65991       74.73172
C         50.44707       78.11767       73.34125
O         51.27716       77.25251       73.10084
H         50.52235       79.75225       74.71994
H         49.30017       78.47568       75.11281
H         51.05466       78.16752       75.41114
N         49.61399       78.57278       72.36811
C         49.63845       78.05316       71.01054
C         50.93100       78.43899       70.30128
O         51.20049       79.61987       70.12995
C         48.43173       78.58146       70.23320
C         48.31549       77.96099       68.88061
O         47.40402       78.30189       68.16629
O         49.17092       77.01826       68.44866
H         48.90369       79.27694       72.62488
H         49.52750       76.94516       71.07116
H         48.50131       79.68654       70.12891
H         47.50040       78.33955       70.79197
N         51.78597       77.46988       69.88226
C         53.08664       77.73832       69.28132
C         52.98633       78.21837       67.82968
O         53.71140       79.13982       67.48328
C         53.97715       76.48558       69.43468
C         55.47511       76.75670       69.21802
C         56.30379       75.53304       69.64612
C         57.81161       75.80389       69.55421
N         58.57790       74.65330       70.03584
H         51.53863       76.49450       70.09979
H         53.59280       78.51263       69.90247
H         53.62840       75.66525       68.77588
H         53.87646       76.15782       70.49473
H         55.77896       77.61219       69.86160
H         55.67396       77.01902       68.15704
H         56.03818       74.65765       69.01471
H         56.06381       75.29046       70.70590
H         58.06763       76.69059       70.17686
H         58.08949       76.02202       68.49986
H         58.36566       73.80868       69.45705
H         59.59930       74.86594       69.96606
H         58.34506       74.45988       71.03767
N         52.12193       77.64770       66.92743
C         52.07289       78.01166       65.50015
C         50.80455       78.77006       65.09181
O         50.66657       79.06459       63.91217
C         52.31221       76.75503       64.62188
C         51.19650       75.74698       64.63081
O         50.03350       76.01957       65.23762
O         51.37331       74.64204       64.14395
H         51.48284       76.91441       67.26239
H         52.91487       78.69838       65.26630
H         53.23625       76.26348       64.99942
H         52.48841       77.04389       63.56432
N         49.88589       79.20142       66.00570
C         48.79710       80.11086       65.66149
C         47.56538       79.50074       65.00869
O         46.67476       80.27401       64.68387
H         50.06030       79.03098       67.00463
H         49.20123       80.92297       65.01701
H         48.43743       80.59451       66.59482
N         47.39694       78.16083       64.80345
C         46.18271       77.60640       64.18481
C         44.91974       77.74022       65.05251
O         43.86037       77.32776       64.60407
C         46.41182       76.13879       63.74005
C         46.48335       75.10377       64.83946
N         45.91762       73.88516       64.65765
O         47.08963       75.33862       65.87209
H         48.16469       77.52856       65.05388
H         46.01489       78.16782       63.23955
H         47.35397       76.09689       63.15316
H         45.59661       75.84373       63.04321
H         45.44372       73.64777       63.77317
H         45.98257       73.15829       65.38452
N         44.95983       78.28048       66.30417
C         43.81668       78.44277       67.18477
C         43.76186       77.40636       68.29376
O         42.86040       77.52072       69.11466
H         45.83997       78.63005       66.66240
H         42.86508       78.39086       66.61643
H         43.87204       79.45915       67.63561
N         44.61718       76.33748       68.36237
C         44.48045       75.27382       69.35925
C         45.76329       75.06293       70.15228
O         46.78839       75.64494       69.82396
C         44.07163       73.94338       68.67367
C         42.72212       74.01950       67.99281
C         42.53586       74.79039       66.83151
C         41.62984       73.30507       68.51605
C         41.28063       74.86606       66.22283
C         40.37447       73.38232       67.90626
C         40.19477       74.16838       66.75956
O         38.98764       74.25905       66.16620
H         45.34958       76.22734       67.64550
H         43.68786       75.53301       70.09563
H         44.02604       73.15476       69.45465
H         44.83451       73.62455       67.93328
H         43.35964       75.33120       66.38937
H         41.74409       72.69597       69.40419
H         41.15290       75.46970       65.33300
H         39.54221       72.83358       68.32864
H         38.20923       73.79890       66.51128
N         45.76445       74.22175       71.22646
C         46.94064       73.88590       72.02401
C         47.14337       72.38098       71.96319
O         46.19795       71.63832       72.20295
C         46.77722       74.33878       73.50899
C         46.53599       75.86682       73.59871
C         48.03237       73.94264       74.32475
C         46.27950       76.35939       75.02806
H         44.87146       73.77965       71.50007
H         47.84810       74.39996       71.63083
H         45.89548       73.81743       73.94428
H         45.63576       76.12385       73.00181
H         47.40465       76.41818       73.17548
H         47.93149       74.19663       75.39689
H         48.18632       72.84822       74.30271
H         48.94046       74.44066       73.91878
H         47.16741       76.22363       75.67801
H         46.05234       77.44518       75.01201
H         45.41493       75.82082       75.47174
N         48.38137       71.86566       71.74558
C         48.69645       70.44695       71.78549
C         49.52638       70.16354       73.02018
O         49.87693       71.09028       73.73652
C         49.45783       70.03900       70.51014
O         48.68923       70.29282       69.36642
H         49.16634       72.51752       71.65376
H         47.76755       69.84081       71.86266
H         49.75245       68.96559       70.53591
H         50.40158       70.61973       70.43078
H         48.05128       69.53795       69.27675
N         49.85253       68.89301       73.36288
C         50.63026       68.57910       74.55599
C         52.02466       69.17855       74.46610
O         52.44542       69.85363       75.39393
C         50.70704       67.06487       74.75041
H         49.51402       68.12182       72.76446
H         50.10931       68.98419       75.45394
H         51.25741       66.83191       75.68665
H         49.67731       66.65516       74.84566
H         51.21139       66.57400       73.89261
N         52.77729       68.99745       73.34439
C         54.12023       69.54564       73.15864
C         54.15229       71.04911       73.34501
O         54.99677       71.54814       74.07575
C         54.61754       69.22613       71.74098
H         52.35742       68.46104       72.56905
H         54.81959       69.07183       73.88127
H         54.62993       68.12891       71.57574
H         53.95777       69.69138       70.97507
H         55.64864       69.61590       71.59927
N         53.24890       71.82733       72.69602
C         53.23542       73.28742       72.73841
C         53.13535       73.76719       74.17311
O         53.97871       74.54369       74.59960
C         52.07612       73.83759       71.87603
C         52.20817       73.36433       70.41357
C         51.09565       73.82470       69.53682
O         49.93848       73.53472       69.76882
O         51.37858       74.47891       68.41609
H         52.52608       71.33261       72.15726
H         54.18279       73.67714       72.29925
H         52.09477       74.94848       71.90291
H         51.10874       73.49831       72.29771
H         52.19412       72.26483       70.33245
H         53.17782       73.70964       69.99854
N         52.16283       73.28253       74.99212
C         52.05205       73.61004       76.39754
H         51.04366       74.02410       76.60162
H         52.18574       72.68176       76.99404
H         52.81648       74.34538       76.72380
H         51.49044       72.60609       74.61566
Ca        49.72674       74.71672       66.96369
O         47.27289       72.77636       67.77351
H         47.65721       72.56001       68.65839
H         46.76376       71.96613       67.51865
O         49.63794       71.73175       66.17666
H         50.14186       71.64332       67.02459
H         50.19478       72.33025       65.61798

Ca 1.0



