%chk=holoCaM-CaMKII.loop2.water2.frame308.chk
%nprocshared=20
%mem=10GB
%nosave
#b3lyp/svp scf=(tight,noincore,xqc) Test 
#IOP(5/87=12) Density=Current Pop=(MK,readradii) iop(6/33=2) iop(6/42=6)

holoCaM-CaMKII.loop2.water2.frame308 

   -2  1 
C         63.63868       11.92701       37.14715
C         65.10431       12.04669       37.47532
O         65.56056       13.11061       37.86319
H         63.10160       12.88413       37.31145
H         63.50723       11.61048       36.09098
H         63.17890       11.15379       37.80300
N         65.88850       10.94319       37.38107
C         67.28888       10.86467       37.79446
C         68.26115       11.62475       36.89581
O         68.23939       11.41815       35.69044
C         67.69294        9.38103       37.80753
C         69.11468        9.19566       38.22160
O         69.55829        9.71054       39.38501
O         69.87652        8.58974       37.48828
H         65.42203       10.07343       37.07485
H         67.37710       11.22775       38.84180
H         67.54422        8.93446       36.79883
H         67.04501        8.83734       38.52393
N         69.23183       12.42110       37.45049
C         70.31102       13.04520       36.68146
C         71.72558       12.65201       37.15048
O         72.66894       13.08573       36.50308
C         70.17002       14.56669       36.78068
H         69.21782       12.57621       38.46883
H         70.22749       12.76004       35.61038
H         70.27821       14.89429       37.83804
H         70.94834       15.07389       36.17047
H         69.17367       14.88286       36.40777
N         71.96876       11.90635       38.27339
C         73.31624       11.65628       38.80998
C         73.64093       10.17308       39.03388
O         74.72492        9.88644       39.52469
C         73.50783       12.48588       40.09966
C         72.40351       12.32840       41.10063
O         71.69014       13.40713       41.47251
O         72.14214       11.24009       41.57607
H         71.17437       11.57467       38.83318
H         74.10001       12.02017       38.10993
H         73.53671       13.55961       39.81458
H         74.48391       12.24286       40.57302
N         72.79914        9.17612       38.64619
C         73.12034        7.75479       38.73922
C         73.16975        7.17028       40.14321
O         73.46355        5.98697       40.24491
H         71.93454        9.43435       38.16877
H         74.09698        7.57655       38.23621
H         72.35076        7.17874       38.18161
N         72.91343        7.89970       41.26819
C         73.05940        7.34525       42.61671
C         71.92990        6.39994       43.04914
O         71.98278        5.91414       44.17036
C         73.34609        8.46637       43.63859
C         72.24986        9.44859       43.93532
N         72.51827       10.46981       44.78121
O         71.14203        9.34387       43.42984
H         72.70405        8.89862       41.16934
H         74.00270        6.75489       42.63491
H         74.21846        9.04431       43.25962
H         73.64144        8.00457       44.60482
H         73.45335       10.57128       45.20147
H         71.81018       11.16861       45.01886
N         70.92004        6.03633       42.20582
C         69.91581        5.02859       42.53284
C         68.85329        5.43741       43.53774
O         68.00428        4.60082       43.81772
H         70.91762        6.39508       41.24453
H         70.43054        4.10869       42.88540
H         69.36949        4.76666       41.60052
N         68.79336        6.67631       44.10190
C         67.74164        7.08552       45.03615
C         66.95391        8.25764       44.48059
O         67.30331        8.76851       43.42354
C         68.37430        7.44900       46.40580
C         68.93792        6.20373       47.09069
O         69.40661        8.39105       46.24993
H         69.51128        7.37267       43.85664
H         67.00136        6.27026       45.19513
H         67.60605        7.85123       47.10370
H         68.98132        9.25993       46.02960
H         69.37142        6.47900       48.07551
H         68.12285        5.46766       47.26416
H         69.72773        5.72964       46.47163
N         65.89280        8.76912       45.16987
C         65.20551        9.98372       44.75844
C         65.72056       11.07800       45.65445
O         65.60194       10.95319       46.86873
C         63.65058        9.91812       44.89944
C         63.02715        8.62630       44.32920
C         63.03609       11.16618       44.21662
C         61.53150        8.51278       44.66665
H         65.64333        8.35723       46.08348
H         65.44299       10.21445       43.69493
H         63.40498        9.93007       45.98546
H         63.52167        7.75286       44.80344
H         63.17893        8.56528       43.23049
H         63.24782       11.15184       43.12385
H         61.94197       11.23589       44.36090
H         63.45826       12.09754       44.63262
H         61.38125        8.57225       45.76762
H         60.93123        9.30942       44.18356
H         61.13571        7.53939       44.31369
N         66.26708       12.20033       45.13025
C         66.67864       13.31912       45.95949
C         65.59870       14.36920       45.91282
O         64.63058       14.19129       45.18721
C         68.05658       13.81047       45.50113
C         69.08723       12.73894       45.74142
O         69.75469       12.17367       44.71929
O         69.33788       12.38419       46.88222
H         66.28845       12.31432       44.10431
H         66.74107       13.02076       47.02990
H         68.36202       14.71808       46.06270
H         68.00922       14.07371       44.42112
N         65.62134       15.43691       46.75243
C         64.50121       16.36382       46.82115
C         64.32861       17.14790       45.52302
O         63.19493       17.25021       45.08028
C         64.55168       17.23546       48.09103
C         63.28837       18.05226       48.27769
C         62.01981       17.43353       48.31763
C         63.36732       19.44594       48.42824
C         60.86254       18.19813       48.48298
C         62.20614       20.20486       48.60784
C         60.95525       19.58267       48.62939
H         66.40723       15.53614       47.41507
H         63.59274       15.73717       46.95348
H         65.45038       17.88441       48.08522
H         64.63713       16.55511       48.96740
H         61.91257       16.36191       48.21594
H         64.32754       19.94516       48.41518
H         59.89331       17.71518       48.49989
H         62.27624       21.27725       48.73008
H         60.05761       20.17220       48.76286
N         65.37584       17.67532       44.80748
C         65.22379       18.34330       43.51447
C         64.57839       17.51109       42.40220
O         64.35228       18.06085       41.33290
C         66.66795       18.65849       43.10296
C         67.34395       18.85501       44.43889
C         66.75187       17.70926       45.25257
H         64.62955       19.26618       43.69678
H         67.13102       17.74415       42.66057
H         66.77190       19.49165       42.37591
H         68.45394       18.87373       44.41145
H         66.97521       19.81748       44.86201
H         67.23322       16.73869       45.00415
H         66.86970       17.95040       46.32761
N         64.27958       16.18907       42.56610
C         63.67561       15.33837       41.54395
C         62.29195       14.85244       41.95680
O         61.57016       14.38093       41.08944
C         64.54868       14.08998       41.34155
C         65.98668       14.39955       40.90470
C         66.85502       13.17960       41.01297
O         68.16880       13.27379       40.77250
O         66.41693       12.13245       41.46439
H         64.52285       15.74233       43.44991
H         63.56896       15.90009       40.59030
H         64.09116       13.39924       40.59831
H         64.57997       13.56591       42.32594
H         66.43335       15.15189       41.58929
H         65.99879       14.80555       39.87280
N         61.87348       14.87019       43.25682
C         60.58023       14.39046       43.69352
H         59.94780       14.04487       42.85060
H         60.72407       13.54533       44.39944
H         60.05099       15.20999       44.22263
H         62.49427       15.20520       43.99835
Ca        69.27132       12.54420       42.56691
O         68.71270        7.84596       41.19267
H         67.84703        7.37035       41.22488
H         69.15871        7.46973       40.39508
O         65.74965        9.17818       41.00221
H         65.26740        9.09159       40.14276
H         66.57143        9.68232       40.77712

Ca 1.0



