%chk=holoCaM-CaMKII.loop3.water2.frame327.chk
%nprocshared=20
%mem=10GB
%nosave
#b3lyp/svp scf=(tight,noincore,xqc) Test 
#IOP(5/87=12) Density=Current Pop=(MK,readradii) iop(6/33=2) iop(6/42=6)

holoCaM-CaMKII.loop3.water2.frame327 

   0  1 
C         39.62264       50.25312       74.76494
C         39.33169       50.58981       76.19639
O         38.36984       50.07998       76.75371
H         40.64142       49.81934       74.68253
H         38.88609       49.52095       74.37213
H         39.57131       51.17776       74.15190
N         40.14526       51.45222       76.86241
C         39.92302       51.84565       78.24743
C         38.62850       52.63608       78.34113
O         38.49202       53.62088       77.62725
C         41.12101       52.68396       78.74115
C         41.09069       52.97021       80.21739
O         40.09113       52.52015       80.99791
O         42.00157       53.60328       80.72123
H         40.96190       51.83396       76.35853
H         39.88113       50.92728       78.87490
H         41.17145       53.63572       78.17175
H         42.05721       52.11916       78.54377
N         37.62693       52.25562       79.18645
C         36.34407       52.95101       79.24519
C         36.54712       54.41596       79.60163
O         36.19644       55.27556       78.80529
C         35.38742       52.25098       80.24578
C         33.96912       52.83938       80.20229
C         33.02095       52.11359       81.16793
C         31.59437       52.66881       81.03821
N         30.66978       51.97661       81.93530
H         37.77687       51.43146       79.78666
H         35.87861       52.88056       78.23631
H         35.78221       52.32108       81.27854
H         35.32249       51.17266       79.97985
H         33.57880       52.73378       79.16681
H         33.99674       53.91849       80.46802
H         33.38011       52.24294       82.21319
H         33.00784       51.02764       80.92843
H         31.24541       52.53890       79.98928
H         31.59236       53.75586       81.27602
H         29.70938       52.36907       81.80252
H         30.64863       50.95473       81.71314
H         30.95869       52.11771       82.93030
N         37.10772       54.76567       80.79181
C         37.28546       56.15080       81.21886
C         38.57330       56.77836       80.67875
O         38.76634       57.96847       80.88607
C         37.22287       56.24903       82.76013
C         38.45737       55.68969       83.41342
O         39.14818       56.41855       84.10456
O         38.86130       54.42712       83.16808
H         37.33996       54.00745       81.43868
H         36.41344       56.73250       80.84352
H         36.31591       55.72354       83.12876
H         37.12956       57.32153       83.04545
N         39.49896       56.05290       79.98150
C         40.69235       56.64468       79.39433
C         41.75438       57.12240       80.37526
O         42.69451       57.74500       79.90060
H         39.32635       55.05834       79.78983
H         40.36995       57.49784       78.75743
H         41.18229       55.90819       78.72435
N         41.70634       56.90103       81.72643
C         42.70667       57.48079       82.63146
C         44.12988       56.94883       82.47499
O         45.00118       57.52697       83.11114
C         42.29506       57.42349       84.12477
C         41.98772       56.04882       84.72889
N         41.87606       56.09830       86.18141
O         42.81904       55.00239       84.34101
H         40.91285       56.38010       82.12108
H         42.75665       58.56687       82.39280
H         41.37651       58.03382       84.25892
H         43.09307       57.90714       84.72732
H         41.11112       56.76294       86.43502
H         41.58943       55.15151       86.52098
N         44.46805       55.88890       81.68337
C         45.85092       55.44126       81.54395
C         46.09655       54.02747       82.02802
O         47.24353       53.60775       81.95503
H         43.74318       55.39435       81.14811
H         46.54769       56.09371       82.11234
H         46.14232       55.51182       80.47382
N         45.10443       53.21632       82.50300
C         45.35920       51.83325       82.89838
C         44.06487       51.03227       82.97716
O         43.16518       51.36689       83.73261
C         46.20251       51.70598       84.18346
C         45.59640       52.30935       85.42391
C         44.84371       51.51562       86.30541
C         45.83641       53.65503       85.74505
C         44.33530       52.06120       87.48711
C         45.33330       54.19712       86.93165
C         44.58390       53.40369       87.80712
O         44.11732       53.93739       88.95386
H         44.13329       53.55709       82.50702
H         45.97274       51.37222       82.09293
H         47.21390       52.14110       84.03740
H         46.38647       50.62312       84.36142
H         44.65432       50.47321       86.07974
H         46.42968       54.27832       85.08747
H         43.75756       51.43679       88.15695
H         45.53678       55.23193       87.17651
H         43.61073       53.41746       89.59411
N         43.91780       49.96242       82.15084
C         42.71811       49.14181       82.01590
C         42.55228       48.22545       83.22341
O         43.51476       47.57725       83.61236
C         42.83317       48.30570       80.69797
C         42.96273       49.25898       79.47157
C         41.61756       47.37601       80.51663
C         43.32274       48.54397       78.17077
H         44.71399       49.73756       81.53624
H         41.82348       49.79334       81.89020
H         43.74978       47.67725       80.76705
H         43.77278       49.99931       79.62552
H         42.02069       49.82982       79.34146
H         40.67818       47.96739       80.46041
H         41.71011       46.75896       79.60252
H         41.54781       46.66168       81.35731
H         44.28570       48.00261       78.29302
H         42.53443       47.83467       77.85548
H         43.44484       49.29760       77.36399
N         41.31908       48.03103       83.77865
C         41.03969       47.05654       84.83275
C         40.23120       45.89578       84.26840
O         39.90764       45.91170       83.09190
C         40.30561       47.73437       86.00295
O         39.05203       48.22129       85.59909
H         40.51826       48.52860       83.36901
H         41.98787       46.62833       85.22405
H         40.93574       48.54853       86.42725
H         40.14340       47.01420       86.83163
H         39.16083       49.18885       85.41116
N         39.89969       44.82532       85.04075
C         39.18912       43.65597       84.52369
C         37.81020       44.01203       83.99927
O         37.50995       43.69056       82.85863
C         39.06007       42.58625       85.61096
H         40.19878       44.82539       86.02871
H         39.78597       43.20549       83.69789
H         38.55384       41.68656       85.19882
H         40.07023       42.28589       85.96183
H         38.47651       42.96455       86.47656
N         36.92504       44.68944       84.78343
C         35.57537       45.05291       84.35696
C         35.59145       45.80799       83.04513
O         34.84696       45.44618       82.14387
C         34.89796       45.91038       85.43357
H         37.23799       44.97822       85.72305
H         34.96474       44.13125       84.22885
H         34.84029       45.34645       86.38871
H         35.46740       46.84914       85.60693
H         33.86398       46.17287       85.12141
N         36.44402       46.85123       82.86043
C         36.50558       47.62634       81.62507
C         36.78743       46.72090       80.43618
O         35.97246       46.67632       79.52479
C         37.55646       48.75325       81.74022
C         37.17221       49.74873       82.85154
C         38.13440       50.89015       82.95409
O         39.43234       50.68129       83.23324
O         37.72916       52.02870       82.82650
H         37.08408       47.08298       83.63433
H         35.51699       48.11102       81.45653
H         37.60021       49.29797       80.77328
H         38.56079       48.32227       81.94316
H         37.14352       49.25212       83.84023
H         36.15612       50.14899       82.64017
N         37.89827       45.93899       80.39289
C         38.15500       45.01694       79.30811
H         39.10181       44.46638       79.49535
H         37.32826       44.27698       79.23887
H         38.24267       45.56815       78.34888
H         38.57120       45.97747       81.16373
Ca        41.02397       53.92423       83.52605
O         41.26895       51.55272       85.82255
H         41.61094       52.39098       86.22333
H         41.14276       50.94410       86.59191
O         38.99547       53.51459       85.96902
H         38.75368       52.86904       86.67928
H         38.95917       54.39982       86.41077

Ca 1.0



