%chk=holoCaM-CaMKII.loop1.water2.frame167.chk
%nprocshared=20
%mem=10GB
%nosave
#b3lyp/svp scf=(tight,noincore,xqc) Test 
#IOP(5/87=12) Density=Current Pop=(MK,readradii) iop(6/33=2) iop(6/42=6)

holoCaM-CaMKII.loop1.water2.frame167 

   0  1 
C         98.38256       49.96487       10.01712
C         97.94835       51.32878        9.59244
O         97.86864       52.20298       10.44227
H         99.39175       50.02939       10.47480
H         97.66213       49.57879       10.76859
H         98.41713       49.26571        9.15691
N         97.66440       51.60371        8.28880
C         97.23419       52.92859        7.87895
C         95.83910       53.19484        8.44355
O         94.91686       52.48799        8.05881
C         97.22848       53.04491        6.33963
C         97.09358       54.47041        5.91302
O         97.14532       55.44618        6.83868
O         97.04207       54.74601        4.73171
H         97.78995       50.86591        7.57814
H         97.99059       53.64727        8.27201
H         96.41461       52.42307        5.90685
H         98.19447       52.68355        5.92373
N         95.61667       54.15050        9.39575
C         94.34310       54.24051       10.11979
C         93.34534       55.22052        9.51225
O         92.17934       55.13991        9.87301
C         94.55053       54.61488       11.60391
C         95.55945       53.74111       12.36819
C         95.32358       52.22743       12.31113
C         93.97549       51.79896       12.89219
N         93.85428       50.34215       12.86776
H         96.43215       54.66562        9.74747
H         93.86555       53.23672       10.09612
H         93.56963       54.57067       12.12324
H         94.91422       55.66540       11.66515
H         95.58415       54.07738       13.42738
H         96.55737       53.92024       11.95054
H         96.13920       51.74151       12.89112
H         95.39961       51.87271       11.26173
H         93.15091       52.24247       12.29344
H         93.88942       52.15988       13.94046
H         94.59947       49.91199       13.46298
H         92.91858       50.06927       13.24412
H         93.94308       49.98942       11.88662
N         93.71854       56.18718        8.62676
C         92.77557       57.12467        7.99689
C         92.74075       56.92945        6.47680
O         91.95238       57.59799        5.82320
C         93.05715       58.60448        8.41462
C         94.40882       59.11366        8.00383
O         94.78702       60.23620        8.29775
O         95.21333       58.25995        7.37248
H         94.71416       56.24343        8.38415
H         91.74330       56.91270        8.34987
H         92.98029       58.67675        9.52200
H         92.28122       59.26563        7.97273
N         93.50759       55.98131        5.85483
C         93.37016       55.62072        4.45476
C         93.79512       56.68866        3.47560
O         92.97335       57.08498        2.66117
H         94.15612       55.39882        6.40061
H         92.31369       55.32548        4.26825
H         94.00133       54.72826        4.25227
N         95.08244       57.14500        3.44209
C         95.58113       58.05346        2.40581
C         96.71774       57.43630        1.57531
O         97.17740       58.09375        0.65264
C         95.97843       59.41064        3.03157
C         97.17698       59.39533        3.94003
O         97.83718       58.38624        4.09745
O         97.54630       60.52631        4.56896
H         95.73510       56.81481        4.16619
H         94.76436       58.28002        1.68672
H         95.10540       59.78788        3.60674
H         96.19427       60.13717        2.21974
N         97.21686       56.18904        1.83606
C         98.26835       55.53741        1.06613
C         99.53695       55.27422        1.86692
O        100.41334       54.60978        1.33082
H         96.82241       55.63802        2.60017
H         98.55566       56.13261        0.17338
H         97.86380       54.56733        0.70374
N         99.75217       55.81304        3.10486
C        101.01243       55.67530        3.84178
C        100.79358       55.33441        5.30552
O         99.68101       55.41903        5.79331
C        101.82399       56.99540        3.75904
C        102.44503       57.21296        2.37600
O        101.03742       58.09965        4.13650
H         99.03144       56.42221        3.50568
H        101.62138       54.84905        3.41325
H        102.68746       56.94421        4.45656
H        100.43982       58.32950        3.37610
H        103.13689       56.37470        2.14574
H        101.66764       57.27194        1.58726
H        103.02990       58.15738        2.38003
N        101.85354       54.95760        6.07558
C        101.77645       54.67173        7.50491
C        102.74507       55.60953        8.20830
O        103.91698       55.61134        7.85215
C        102.15694       53.18789        7.80048
C        101.31501       52.20702        6.94380
C        101.97538       52.89119        9.30767
C        101.74835       50.74487        7.09079
H        102.77629       54.86589        5.62173
H        100.74036       54.83060        7.88315
H        103.22547       53.04105        7.52657
H        101.44286       52.46196        5.87036
H        100.23868       52.30057        7.19785
H        100.90738       52.99988        9.59994
H        102.31113       51.86808        9.56690
H        102.57986       53.58321        9.92802
H        101.15607       50.11124        6.39790
H        102.82408       50.63645        6.83316
H        101.57632       50.36513        8.11752
N        102.34092       56.40812        9.23452
C        103.24598       57.30373        9.95668
C        103.50308       56.75612       11.35447
O        102.94305       55.73019       11.70025
C        102.70714       58.76582        9.91303
C        101.35058       58.94959       10.59473
O        103.61298       59.65868       10.50388
H        101.36562       56.33303        9.55169
H        104.23977       57.31609        9.45920
H        102.57171       59.05616        8.84619
H        104.36920       59.76636        9.87022
H        101.40735       58.67387       11.66695
H        101.03314       60.01130       10.51871
H        100.57520       58.34593       10.09532
N        104.39454       57.35144       12.19269
C        104.75523       56.81888       13.50709
C        103.54659       56.67357       14.41646
O        103.33693       55.58801       14.94004
C        105.83463       57.69986       14.18750
C        107.16906       57.63906       13.43031
O        105.39106       59.03032       14.27536
H        104.86792       58.20406       11.86848
H        105.19659       55.80333       13.38106
H        106.01007       57.29251       15.21100
H        105.98504       59.49280       14.92193
H        107.07288       58.02307       12.39434
H        107.92953       58.25065       13.95967
H        107.53477       56.59067       13.39064
N        102.70807       57.72021       14.64923
C        101.56546       57.64455       15.55703
C        100.62774       56.51541       15.16482
O        100.27580       55.71052       16.01603
C        100.82211       58.99790       15.57656
C         99.73832       59.04318       16.66999
C         98.98024       60.37951       16.73798
C         99.88367       61.58036       17.06870
N         99.09149       62.79772       17.23969
H        102.89134       58.60790       14.15726
H        101.94657       57.46023       16.58709
H        100.37438       59.20444       14.57914
H        101.57401       59.78378       15.79610
H        100.20881       58.84827       17.65898
H         98.99105       58.24307       16.47972
H         98.21640       60.28382       17.54065
H         98.45261       60.56164       15.77671
H        100.61564       61.74519       16.24945
H        100.44349       61.37782       18.00864
H         99.73286       63.59668       17.44914
H         98.56019       63.00939       16.36409
H         98.42589       62.68261       18.03834
N        100.22095       56.38065       13.87332
C         99.32301       55.32789       13.40540
C         99.85105       53.94998       13.77590
O         99.15802       53.22727       14.47887
C         99.10737       55.44607       11.87678
C         98.37498       56.75292       11.51356
C         98.03329       56.83912       10.05495
O         98.89669       56.73814        9.19985
O         96.76168       57.07297        9.68547
H        100.59455       57.05463       13.19132
H         98.33312       55.44911       13.90196
H         98.50872       54.58992       11.52620
H        100.08139       55.39076       11.34563
H         99.00125       57.62685       11.77471
H         97.42997       56.82436       12.09498
N        101.07768       53.53286       13.36308
C        101.65926       52.25426       13.71666
H        102.60257       52.42680       14.27759
H        100.98503       51.64032       14.34946
H        101.89203       51.68763       12.79133
H        101.64245       54.15636       12.78290
Ca        97.17294       57.66704        6.58943
O         98.18791       59.87420        9.03671
H         98.26251       60.76926        9.45213
H         97.56199       60.00073        8.28050
O        100.41217       58.98909        7.31688
H        100.76159       59.91207        7.23621
H        100.17043       58.73342        6.39363

Ca 1.0



