%chk=holoCaM.loop2.water2.frame415.chk
%nprocshared=20
%mem=10GB
%nosave
#b3lyp/svp scf=(tight,noincore,xqc) Test 
#IOP(5/87=12) Density=Current Pop=(MK,readradii) iop(6/33=2) iop(6/42=6)

holoCaM.loop2.water2.frame415 

   -2  1 
C          3.16829       96.37865       27.95773
C          4.43545       96.48527       27.15913
O          5.50133       96.15784       27.66040
H          2.46161       95.69357       27.44094
H          3.36440       95.98563       28.97688
H          2.69703       97.38085       28.04012
N          4.37194       96.92327       25.87428
C          5.52665       97.02673       24.98670
C          6.47820       98.11742       25.47949
O          6.10761       99.28287       25.44656
C          4.99112       97.35573       23.57560
C          5.92931       97.49949       22.41103
O          5.48729       98.05901       21.42833
O          7.19662       97.04005       22.36970
H          3.43503       97.15027       25.50336
H          6.01671       96.03855       24.97056
H          4.46654       98.33261       23.67072
H          4.22521       96.60607       23.27893
N          7.70360       97.81014       25.99655
C          8.62413       98.81977       26.51291
C          9.39335       99.54085       25.41015
O         10.07985      100.50319       25.72511
C          9.63533       98.16438       27.46845
H          7.95337       96.82310       26.10833
H          8.04081       99.55404       27.11089
H         10.25219       97.40973       26.93237
H         10.31165       98.92650       27.91204
H          9.09941       97.65558       28.29843
N          9.41316       99.08006       24.12441
C         10.26907       99.63962       23.07877
C          9.51363       99.95369       21.78309
O         10.16127      100.33086       20.81606
C         11.47220       98.69330       22.87709
C         11.08656       97.28576       22.55140
O         11.37145       96.29402       23.41633
O         10.52460       97.03219       21.50439
H          8.89597       98.22107       23.89640
H         10.72263      100.60098       23.40575
H         12.04108       98.67229       23.83277
H         12.15525       99.08418       22.09221
N          8.15018       99.91222       21.70401
C          7.40511      100.35281       20.52816
C          7.43624       99.42039       19.32422
O          6.84121       99.78557       18.31975
H          7.60440       99.68180       22.54532
H          7.76822      101.36104       20.23248
H          6.33573      100.46486       20.80918
N          8.07003       98.21071       19.32969
C          8.11803       97.32281       18.15894
C          6.80835       96.56129       17.89158
O          6.79951       95.68838       17.03497
C          9.34145       96.38033       18.26080
C          9.22582       95.22217       19.22302
N          9.61960       93.98604       18.83642
O          8.82306       95.39548       20.36166
H          8.59630       97.94369       20.16976
H          8.35481       97.94814       17.26913
H         10.21822       97.00033       18.54796
H          9.56429       95.97070       17.25096
H          9.98845       93.81620       17.88930
H          9.59108       93.19677       19.49588
N          5.65661       96.86246       18.55706
C          4.37612       96.20584       18.35750
C          4.24674       94.84910       19.02270
O          3.14696       94.31413       18.96618
H          5.64290       97.66320       19.18506
H          4.13370       96.15345       17.27391
H          3.59634       96.84005       18.83639
N          5.27754       94.22080       19.66729
C          5.11999       92.92255       20.32912
C          5.64002       92.94740       21.76451
O          6.23709       93.93162       22.17914
C          5.85213       91.82260       19.52097
C          5.25803       91.65114       18.11108
O          7.23465       92.07634       19.46749
H          6.21300       94.65112       19.66724
H          4.04390       92.64415       20.37761
H          5.71595       90.84511       20.02966
H          7.42929       92.60044       18.64802
H          5.79636       90.83964       17.57721
H          4.18328       91.38260       18.17793
H          5.35801       92.58599       17.51854
N          5.44200       91.86695       22.57698
C          6.00263       91.71155       23.92078
C          6.79015       90.40793       24.00686
O          6.27938       89.35718       23.64230
C          4.92458       91.78075       25.04375
C          3.72862       90.82281       24.81531
C          4.46993       93.23849       25.23439
C          2.76257       90.77493       26.00084
H          4.86922       91.09003       22.21163
H          6.71598       92.53670       24.14225
H          5.43060       91.49131       25.99296
H          4.10209       89.78962       24.67323
H          3.16680       91.12264       23.90502
H          5.35413       93.87494       25.44398
H          3.95270       93.62197       24.33127
H          3.80845       93.34651       26.11650
H          1.95816       90.03917       25.79356
H          3.30246       90.46008       26.91701
H          2.27933       91.75607       26.17848
N          8.05532       90.41470       24.51050
C          8.89974       89.22924       24.63931
C          8.60327       88.51734       25.97427
O          7.70991       88.94995       26.68535
C         10.37241       89.70457       24.50619
C         11.40018       88.66778       24.12544
O         12.57344       88.99679       24.05963
O         11.04962       87.42510       23.74147
H          8.44198       91.31381       24.83134
H          8.69033       88.54965       23.78354
H         10.66317       90.22830       25.44221
H         10.43057       90.44529       23.67969
N          9.30899       87.42111       26.37730
C          9.08690       86.66768       27.61456
C          9.20420       87.51746       28.88288
O          8.26467       87.46864       29.66309
C         10.05557       85.46418       27.66139
C          9.87398       84.57272       28.86758
C          8.65849       83.90192       29.09365
C         10.93802       84.38329       29.76661
C          8.51529       83.05566       30.19851
C         10.79039       83.53620       30.86832
C          9.58088       82.87152       31.08362
H         10.05100       87.07746       25.76492
H          8.05478       86.25187       27.57992
H         11.09854       85.83632       27.61931
H          9.89683       84.84316       26.75328
H          7.82554       84.02516       28.41344
H         11.88491       84.88569       29.61269
H          7.57982       82.53749       30.36605
H         11.61655       83.39167       31.55242
H          9.47092       82.21195       31.93475
N         10.27953       88.31345       29.19164
C         10.34127       89.13289       30.39834
C          9.23525       90.17551       30.40924
O          8.60950       90.36148       31.44432
C         11.76243       89.71636       30.36865
C         12.08807       89.78352       28.89420
C         11.46627       88.48847       28.37349
H         10.25611       88.53200       31.33158
H         11.91235       90.65214       30.95009
H         12.44689       88.94306       30.78564
H         11.54752       90.65041       28.46653
H         13.16290       89.91097       28.64520
H         11.26474       88.62305       27.29496
H         12.14288       87.62588       28.55092
N          8.90159       90.85316       29.28030
C          7.84132       91.85330       29.22026
C          6.47563       91.25592       29.53002
O          5.59218       91.99071       29.94909
C          7.81708       92.48402       27.81986
C          9.13970       93.21153       27.51265
C          9.13623       93.71398       26.11269
O          8.15023       94.52897       25.73702
O         10.01377       93.40287       25.32284
H          9.40917       90.62724       28.41639
H          8.05848       92.65025       29.96718
H          6.97688       93.21101       27.74396
H          7.64492       91.67819       27.07447
H         10.02421       92.55687       27.63974
H          9.24358       94.07371       28.20607
N          6.22216       89.93543       29.32274
C          4.94835       89.32010       29.61491
H          4.14374       89.80619       29.02832
H          4.98451       88.24217       29.34397
H          4.72780       89.40556       30.69905
H          6.95600       89.33788       28.93566
Ca         8.06615       95.54055       23.76444
O          9.07074       92.05002       22.13864
H          8.61034       92.80370       21.69474
H          9.50268       91.54849       21.40236
O         11.60637       93.71828       22.13099
H         11.79433       92.75472       22.00727
H         12.48651       94.11404       22.35208

Ca 1.0



