%chk=holoCaM.loop3.water1.frame422.chk
%nprocshared=20
%mem=10GB
%nosave
#b3lyp/svp scf=(tight,noincore,xqc) Test 
#IOP(5/87=12) Density=Current Pop=(MK,readradii) iop(6/33=2) iop(6/42=6)

holoCaM.loop3.water1.frame422 

   0  1 
C         85.87123       92.88185       67.31437
C         85.43756       91.86032       68.32001
O         84.34462       91.32513       68.19299
H         86.81201       92.54771       66.82767
H         85.09470       93.01277       66.53019
H         86.04238       93.85386       67.82004
N         86.26935       91.50825       69.34009
C         85.91242       90.47159       70.29755
C         84.79218       90.96456       71.19435
O         84.99689       91.93274       71.91453
C         87.14939       90.04467       71.11817
C         86.94476       88.71047       71.78563
O         85.93066       88.50423       72.63876
O         87.69053       87.78406       71.52059
H         87.20312       91.94598       69.38721
H         85.58433       89.59232       69.71170
H         87.41917       90.82966       71.85767
H         88.01430       89.92722       70.42705
N         83.56454       90.37339       71.17136
C         82.44680       90.85601       71.97507
C         82.73442       90.69068       73.45895
O         82.84674       91.68770       74.15844
C         81.14568       90.13477       71.55581
C         79.93820       90.59517       72.38033
C         78.63955       89.97455       71.86042
C         77.45412       90.41805       72.72616
N         76.19449       89.89881       72.19796
H         83.41016       89.58937       70.52062
H         82.30726       91.93851       71.75381
H         81.25393       89.03213       71.65521
H         80.96539       90.35910       70.48109
H         79.85499       91.70217       72.32272
H         80.08544       90.29954       73.44237
H         78.71273       88.86448       71.87843
H         78.47834       90.30532       70.81083
H         77.40527       91.52944       72.75170
H         77.60078       90.04907       73.76632
H         76.21765       88.85389       72.16626
H         75.41292       90.20447       72.82154
H         76.02847       90.27934       71.23779
N         82.84137       89.45060       74.00950
C         83.11015       89.21577       75.43017
C         84.56224       89.56016       75.83264
O         84.88819       89.41480       77.00238
C         82.67803       87.77655       75.81835
C         83.32380       86.74770       74.95815
O         82.66530       86.00670       74.24506
O         84.64930       86.70506       74.92268
H         82.67883       88.64382       73.39035
H         82.44246       89.86830       76.03492
H         81.57676       87.68599       75.69310
H         82.91837       87.57805       76.88504
N         85.45834       90.09288       74.94557
C         86.77091       90.61934       75.29801
C         87.86338       89.62467       75.65711
O         88.94627       90.10139       75.96821
H         85.16303       90.27112       73.98286
H         86.64496       91.34160       76.13454
H         87.15794       91.19472       74.42841
N         87.70065       88.26755       75.66808
C         88.76949       87.38261       76.15168
C         90.00692       87.32377       75.24537
O         91.02279       86.81537       75.70039
C         88.23010       85.96893       76.49115
C         87.88426       85.03664       75.30934
N         88.81489       83.92297       75.19650
O         87.84437       85.71812       74.10079
H         86.78139       87.87320       75.43620
H         89.08530       87.81046       77.13081
H         87.31237       86.09675       77.10516
H         88.96131       85.44943       77.14802
H         88.72817       83.33697       76.05673
H         88.50193       83.32783       74.39579
N         89.99607       87.78576       73.95689
C         91.16390       87.79329       73.07651
C         91.05531       86.85212       71.87682
O         91.92973       86.89722       71.02723
H         89.11998       88.16186       73.57127
H         92.09001       87.51462       73.62453
H         91.29819       88.83432       72.71171
N         90.05739       85.92690       71.78221
C         89.92078       84.92190       70.73150
C         88.51684       84.98513       70.14551
O         87.56705       84.94627       70.91349
C         90.13557       83.51014       71.31463
C         91.50065       83.33361       71.93753
C         91.78636       83.86244       73.20961
C         92.49836       82.61891       71.25597
C         93.04556       83.67693       73.78716
C         93.76105       82.44578       71.82912
C         94.03785       82.97164       73.09917
O         95.24927       82.80395       73.66646
H         89.38491       85.87865       72.53570
H         90.68176       85.06736       69.93419
H         90.02381       82.79852       70.46664
H         89.35936       83.24190       72.06447
H         91.03361       84.40597       73.76353
H         92.30328       82.20526       70.27463
H         93.24900       84.08032       74.77155
H         94.52187       81.90082       71.28532
H         95.96216       82.32260       73.22269
N         88.30687       85.05373       68.79470
C         86.96934       85.19637       68.21150
C         86.56669       83.97304       67.39464
O         87.21911       83.64449       66.41611
C         86.85644       86.53055       67.40794
C         87.80123       86.61980       66.17882
C         87.08491       87.69857       68.37463
C         87.66399       87.92825       65.39630
H         89.12084       85.02195       68.16640
H         86.21567       85.27933       69.02385
H         85.81306       86.61154       67.03665
H         87.55521       85.80686       65.46863
H         88.86163       86.51419       66.48727
H         88.12932       87.71054       68.75183
H         86.85974       88.67263       67.89817
H         86.39640       87.58743       69.23302
H         86.61243       88.07891       65.07201
H         87.99468       88.79639       66.00226
H         88.31454       87.88943       64.49787
N         85.46693       83.24570       67.76212
C         84.95813       82.10596       66.99836
C         84.38339       82.54999       65.65683
O         84.34999       83.74110       65.37877
C         83.86197       81.38208       67.81035
O         82.77564       82.23979       68.03840
H         84.97079       83.51237       68.62563
H         85.78764       81.38321       66.83533
H         84.28329       81.05452       68.78575
H         83.52363       80.47647       67.25813
H         82.01408       81.66499       68.31109
N         83.87915       81.63190       64.78131
C         83.23239       82.00250       63.52512
C         81.98111       82.83058       63.76794
O         81.67204       83.68310       62.94751
C         82.86098       80.75607       62.71535
H         83.94689       80.63104       65.02298
H         83.94976       82.59157       62.91069
H         83.77345       80.16042       62.49908
H         82.14092       80.12162       63.27517
H         82.40238       81.05063       61.74629
N         81.20007       82.61809       64.86699
C         80.01451       83.41319       65.16736
C         80.40034       84.85716       65.43585
O         79.87023       85.74287       64.77905
C         79.26952       82.82789       66.37211
H         81.46186       81.86338       65.51921
H         79.30986       83.36093       64.30681
H         79.90012       82.83546       67.28509
H         78.34248       83.40934       66.56572
H         78.97648       81.77879       66.14960
N         81.34923       85.16358       66.37126
C         81.78981       86.53304       66.64626
C         82.39314       87.20280       65.41595
O         82.52493       88.41898       65.42962
C         82.85087       86.55895       67.77264
C         82.30511       86.10980       69.13485
C         83.40636       86.05451       70.15830
O         84.10890       87.15999       70.46377
O         83.66904       85.00348       70.72054
H         81.78109       84.38661       66.89121
H         80.90058       87.12642       66.95750
H         83.25044       87.59184       67.89134
H         83.68675       85.89099       67.47105
H         81.84579       85.10313       69.05343
H         81.52656       86.82646       69.47440
N         82.81054       86.48251       64.33569
C         83.37331       87.07473       63.14067
H         84.41415       86.71280       63.00755
H         82.76980       86.76128       62.26279
H         83.38377       88.18358       63.17986
H         82.75320       85.45915       64.35334
Ca        85.75195       85.56412       73.41298
O         84.80509       82.95275       73.92854
H         83.88930       82.77075       73.60013
H         85.39845       82.46471       73.30389

Ca 1.0



