%chk=holoCaM-CaMKII.loop2.water1.frame182.chk
%nprocshared=20
%mem=10GB
%nosave
#b3lyp/svp scf=(tight,noincore,xqc) Test 
#IOP(5/87=12) Density=Current Pop=(MK,readradii) iop(6/33=2) iop(6/42=6)

holoCaM-CaMKII.loop2.water1.frame182 

   -2  1 
C         20.66094       54.34009        2.52140
C         20.61218       55.74749        2.01304
O         20.08714       55.96205        0.92936
H         21.14434       54.28707        3.51925
H         19.62339       53.95315        2.61379
H         21.22714       53.70599        1.80985
N         21.10465       56.77319        2.76254
C         20.96771       58.15901        2.34817
C         21.80137       58.44941        1.10699
O         23.02241       58.43913        1.17404
C         21.32103       59.09778        3.51522
C         21.00213       60.54121        3.26467
O         20.54666       60.93031        2.20118
O         21.18564       61.41412        4.26309
H         21.51023       56.56282        3.68793
H         19.89140       58.31467        2.13630
H         22.39617       58.99797        3.77999
H         20.71570       58.79314        4.39705
N         21.17596       58.69492       -0.07556
C         21.85348       59.00189       -1.32541
C         22.52894       60.35631       -1.25598
O         23.72578       60.43707       -1.49331
C         20.84141       58.99641       -2.48354
H         20.15651       58.61995       -0.09265
H         22.59762       58.20449       -1.54583
H         20.05022       59.76212       -2.33865
H         21.35554       59.19635       -3.44739
H         20.35057       58.00149       -2.54995
N         21.80508       61.47454       -0.95646
C         22.37452       62.82099       -0.96154
C         23.47125       63.00506        0.07205
O         24.20539       63.97850       -0.03276
C         21.28905       63.87079       -0.63974
C         20.13318       63.84337       -1.59725
O         20.30394       64.12283       -2.77234
O         18.89845       63.51966       -1.16278
H         20.80124       61.36117       -0.75121
H         22.79302       63.01133       -1.97521
H         21.72113       64.89553       -0.64156
H         20.91758       63.66412        0.38271
N         23.56995       62.18952        1.16038
C         24.49283       62.43851        2.25242
C         24.22389       63.79451        2.86651
O         25.13597       64.60708        2.92438
H         22.92881       61.39199        1.26189
H         25.54098       62.37238        1.88559
H         24.34721       61.66032        3.03226
N         22.96914       64.11689        3.30021
C         22.60847       65.43274        3.83130
C         22.02597       65.37399        5.24526
O         21.78751       66.43054        5.81280
C         21.63669       66.13342        2.85456
C         20.24541       65.54040        2.84852
N         19.16201       66.31917        3.07262
O         20.09033       64.35147        2.63457
H         22.23429       63.40799        3.18791
H         23.52265       66.06347        3.87867
H         22.06580       66.07384        1.82980
H         21.56554       67.20978        3.12040
H         19.25966       67.32977        3.24431
H         18.21597       65.91225        3.05574
N         21.75829       64.18870        5.86995
C         21.25486       64.06686        7.22875
C         19.87778       63.42412        7.32554
O         19.49027       63.10327        8.44024
H         21.94909       63.30885        5.38726
H         21.20546       65.04899        7.74575
H         21.98169       63.43727        7.78573
N         19.04481       63.28200        6.24880
C         17.66706       62.77755        6.35789
C         17.36605       61.68761        5.33171
O         18.22711       61.35401        4.52995
C         16.67396       63.96249        6.23879
C         16.70188       64.82276        7.50883
O         16.99305       64.74317        5.11796
H         19.35543       63.63571        5.33126
H         17.49815       62.29733        7.34728
H         15.63654       63.57467        6.14176
H         16.26854       65.41333        5.01175
H         17.70769       65.25513        7.68404
H         15.96566       65.64939        7.42248
H         16.41352       64.20257        8.38594
N         16.14446       61.06296        5.33681
C         15.78048       59.95392        4.45648
C         14.58489       60.34745        3.58147
O         13.51193       60.60325        4.11036
C         15.46464       58.68479        5.31573
C         16.68588       58.30841        6.20010
C         15.05094       57.49863        4.42207
C         16.43294       57.13052        7.14714
H         15.44087       61.35574        6.03149
H         16.63340       59.69984        3.79747
H         14.60905       58.92212        5.98770
H         16.95077       59.17557        6.84166
H         17.56215       58.07263        5.55745
H         14.75260       56.62118        5.02896
H         14.16176       57.75563        3.81691
H         15.88156       57.20650        3.74632
H         17.33033       56.96827        7.78085
H         15.56699       57.34443        7.80905
H         16.25034       56.18876        6.59177
N         14.70793       60.38931        2.22072
C         13.60604       60.63574        1.28703
C         12.84867       59.34647        1.00838
O         13.19806       58.31848        1.55814
C         14.15660       61.18146       -0.05048
C         14.80220       62.52173        0.11405
O         14.07985       63.56665        0.56114
O         15.96946       62.68219       -0.19677
H         15.62383       60.18251        1.81404
H         12.90273       61.38502        1.71314
H         13.33748       61.32181       -0.78403
H         14.87940       60.45395       -0.48212
N         11.78023       59.33197        0.15968
C         11.01089       58.12547       -0.12997
C         11.84932       57.05580       -0.84633
O         11.92172       55.96390       -0.29780
C          9.69666       58.49473       -0.86170
C          8.76485       57.32637       -1.07705
C          8.34350       56.98602       -2.37481
C          8.27576       56.58930        0.01662
C          7.44762       55.93055       -2.57171
C          7.38439       55.53239       -0.18590
C          6.96835       55.20473       -1.47832
H         11.47242       60.22184       -0.25886
H         10.68758       57.70478        0.84752
H          9.89299       58.99883       -1.81978
H          9.15431       59.23645       -0.23646
H          8.69779       57.54264       -3.23375
H          8.57404       56.83483        1.02731
H          7.11996       55.67909       -3.57210
H          7.01051       54.97232        0.66133
H          6.27142       54.39119       -1.63169
N         12.52532       57.24621       -2.03077
C         13.35334       56.22086       -2.67167
C         14.38962       55.62998       -1.73617
O         14.57902       54.42294       -1.71441
C         14.08360       56.98240       -3.78975
C         13.07179       58.03199       -4.16020
C         12.58242       58.48373       -2.78762
H         12.69681       55.43250       -3.10345
H         14.95782       57.53930       -3.37881
H         14.44373       56.34053       -4.62294
H         13.45139       58.84852       -4.81042
H         12.23177       57.51760       -4.68226
H         13.30222       59.17169       -2.29168
H         11.61767       58.98060       -2.94898
N         15.08861       56.46509       -0.92158
C         16.14179       56.05195       -0.00232
C         15.61008       55.00729        0.96245
O         16.18403       53.93019        1.04312
C         16.70965       57.29185        0.73705
C         17.30653       58.30703       -0.26763
C         17.86953       59.54688        0.35810
O         18.30881       60.42345       -0.36633
O         17.92733       59.70354        1.69162
H         14.82494       57.45858       -0.95125
H         16.98111       55.60249       -0.57985
H         17.50578       56.96674        1.44223
H         15.90219       57.78105        1.32242
H         16.53646       58.65972       -0.97731
H         18.10564       57.81088       -0.85731
N         14.47450       55.23878        1.67520
C         13.85075       54.26792        2.54929
H         12.83345       54.03805        2.16501
H         14.42379       53.31983        2.60836
H         13.75630       54.69498        3.56843
H         13.99574       56.13575        1.56255
Ca        18.52807       62.86403        0.97287
O         16.37564       63.95051        2.52685
H         16.30379       63.14093        3.09148
H         15.50135       64.40226        2.62621

Ca 1.0



