%chk=holoCaM-CaMKII.loop1.water2.frame331.chk
%nprocshared=20
%mem=10GB
%nosave
#b3lyp/svp scf=(tight,noincore,xqc) Test 
#IOP(5/87=12) Density=Current Pop=(MK,readradii) iop(6/33=2) iop(6/42=6)

holoCaM-CaMKII.loop1.water2.frame331 

   0  1 
C         25.75031       66.93525       53.48432
C         25.27074       67.92950       52.46561
O         24.80442       68.99257       52.84847
H         26.55470       67.39676       54.09667
H         24.91298       66.63473       54.14549
H         26.16766       66.02614       53.00056
N         25.39835       67.66525       51.13684
C         25.07222       68.63700       50.10101
C         23.56423       68.89907       50.02059
O         22.81062       67.99396       49.69213
C         25.63146       68.13141       48.75825
C         25.58695       69.14341       47.66068
O         25.09419       70.37794       47.86180
O         26.04525       68.84858       46.57366
H         25.82875       66.76831       50.86018
H         25.62276       69.57396       50.34892
H         25.08926       67.21256       48.44422
H         26.70457       67.87203       48.89810
N         23.06493       70.12735       50.33819
C         21.64119       70.48086       50.32739
C         21.04418       70.57332       48.92457
O         20.06491       69.88691       48.66883
C         21.42730       71.83092       51.05765
C         21.66405       71.73819       52.58479
C         20.58746       70.93697       53.35478
C         19.20385       71.61732       53.31968
N         18.21718       70.85690       54.08519
H         23.73828       70.83063       50.67268
H         21.06768       69.70765       50.87677
H         20.40594       72.21839       50.87767
H         22.11861       72.58216       50.62174
H         21.68181       72.76507       53.00941
H         22.66167       71.28625       52.77380
H         20.90658       70.87159       54.41752
H         20.51248       69.89875       52.97362
H         18.83326       71.71048       52.27862
H         19.29236       72.63911       53.75221
H         18.08275       69.91304       53.65508
H         18.52551       70.75532       55.07895
H         17.30460       71.36806       54.06482
N         21.54383       71.42398       47.98110
C         20.91742       71.63478       46.66549
C         21.55305       70.79953       45.56282
O         21.10544       70.90508       44.42870
C         20.84066       73.14399       46.30859
C         22.16113       73.83129       46.46145
O         23.26219       73.36728       45.84750
O         22.27697       74.71616       47.29540
H         22.41217       71.92983       48.20575
H         19.86418       71.27890       46.68258
H         20.12233       73.63261       47.00441
H         20.45245       73.28457       45.27743
N         22.51329       69.87073       45.82381
C         22.99256       68.93107       44.82434
C         23.74692       69.59410       43.70044
O         23.38048       69.41948       42.54723
H         22.86165       69.75195       46.78395
H         22.13292       68.34803       44.42589
H         23.68401       68.21258       45.31354
N         24.84947       70.33803       43.97640
C         25.72703       70.91682       42.96509
C         27.15176       70.37083       43.09728
O         28.05719       70.92085       42.48598
C         25.65421       72.45920       43.02105
C         26.07747       73.11544       44.30554
O         26.01440       74.33032       44.39533
O         26.51229       72.40171       45.35760
H         25.09328       70.47875       44.96514
H         25.38528       70.65287       41.94016
H         24.60026       72.75477       42.82572
H         26.27972       72.87484       42.20164
N         27.41068       69.23949       43.82022
C         28.72905       68.63760       43.95621
C         29.68231       69.39594       44.85939
O         30.79112       68.90716       45.03656
H         26.62939       68.71795       44.23580
H         29.17697       68.49058       42.95005
H         28.60538       67.63358       44.41897
N         29.34625       70.56486       45.47782
C         30.23824       71.28360       46.38435
C         29.58999       71.47655       47.74850
O         28.38187       71.30521       47.87622
C         30.65063       72.64460       45.77062
C         31.48818       72.46884       44.49375
O         29.52453       73.44939       45.51840
H         28.41976       70.96785       45.30801
H         31.16394       70.69046       46.55449
H         31.29523       73.18600       46.49612
H         29.08570       73.12486       44.68850
H         30.91525       71.92861       43.70994
H         31.77824       73.46414       44.09491
H         32.41201       71.89596       44.72009
N         30.35932       71.78414       48.83335
C         29.83407       71.96187       50.18608
C         30.31296       73.30534       50.72637
O         31.50851       73.56976       50.66411
C         30.29232       70.81266       51.14027
C         30.08173       69.41450       50.49956
C         29.51111       70.91821       52.47213
C         30.56369       68.25813       51.38363
H         31.38232       71.85051       48.70211
H         28.72346       71.92040       50.17105
H         31.38095       70.92513       51.34091
H         30.67470       69.36263       49.56153
H         29.01083       69.25646       50.24538
H         29.64642       71.91147       52.93995
H         28.42409       70.75803       52.29391
H         29.85618       70.17523       53.21677
H         29.95142       68.16507       52.30343
H         30.47031       67.30133       50.82889
H         31.62929       68.40222       51.66373
N         29.45726       74.16944       51.33759
C         29.86525       75.43856       51.93625
C         29.79033       75.33418       53.44434
O         29.39272       74.29783       53.94900
C         28.96747       76.60068       51.43151
C         29.06649       76.79354       49.91625
O         27.62916       76.42057       51.83222
H         28.48228       73.87827       51.46267
H         30.92339       75.66847       51.68100
H         29.31510       77.55267       51.88423
H         27.19657       75.78353       51.20817
H         30.11313       77.01610       49.62227
H         28.73556       75.87316       49.40120
H         28.41614       77.63743       49.60019
N         30.17365       76.36412       54.24072
C         30.07088       76.31783       55.69847
C         28.61656       76.17767       56.13785
O         28.34798       75.43044       57.06684
C         30.72880       77.55610       56.34812
C         32.24245       77.57792       56.07544
O         30.12994       78.73266       55.86915
H         30.54629       77.21416       53.78945
H         30.63009       75.43303       56.08094
H         30.58092       77.47944       57.45083
H         30.41904       79.46648       56.47219
H         32.71434       76.65204       56.47038
H         32.46213       77.64961       54.99008
H         32.70943       78.44673       56.58390
N         27.62373       76.83771       55.47633
C         26.20102       76.72184       55.80220
C         25.74224       75.27417       55.73480
O         25.16942       74.78067       56.69650
C         25.39677       77.63610       54.84410
C         23.87888       77.65792       55.10269
C         23.24330       78.86916       54.39032
C         21.72475       78.98975       54.59951
N         20.97906       77.99968       53.82224
H         27.89411       77.43712       54.68117
H         26.03166       77.10121       56.83429
H         25.57495       77.36203       53.77945
H         25.79439       78.66257       55.00316
H         23.69002       77.77516       56.19157
H         23.43580       76.69640       54.76514
H         23.46792       78.86453       53.30151
H         23.70626       79.77970       54.83148
H         21.40835       80.00125       54.25932
H         21.47743       78.90588       55.68131
H         19.95613       78.13903       53.98983
H         21.16684       78.14103       52.80232
H         21.23849       77.02779       54.10018
N         25.99125       74.53209       54.62626
C         25.58234       73.13752       54.45458
C         26.19816       72.26004       55.53655
O         25.46265       71.57371       56.23254
C         25.95082       72.66014       53.02575
C         25.17820       73.50292       51.98543
C         25.51308       73.22772       50.55117
O         26.64073       73.37759       50.12118
O         24.51755       72.98429       49.69520
H         26.51774       74.99498       53.87213
H         24.47440       73.06124       54.54254
H         25.68057       71.58992       52.89531
H         27.04492       72.76483       52.87790
H         25.37347       74.58019       52.12704
H         24.08891       73.35176       52.13906
N         27.53689       72.27163       55.76995
C         28.16086       71.50539       56.82652
H         29.25101       71.72375       56.85553
H         27.72551       71.78620       57.80968
H         28.01838       70.42001       56.64747
H         28.13408       72.87304       55.20196
Ca        24.76597       73.11608       47.47208
O         27.93805       75.04646       47.23375
H         28.16531       75.98287       47.00639
H         27.36985       74.74413       46.48583
O         25.42566       76.20830       48.39436
H         24.53020       75.81527       48.24447
H         25.35412       77.12821       48.03585

Ca 1.0



