%chk=holoCaM-CaMKII.loop4.water2.frame158.chk
%nprocshared=20
%mem=10GB
%nosave
#b3lyp/svp scf=(tight,noincore,xqc) Test 
#IOP(5/87=12) Density=Current Pop=(MK,readradii) iop(6/33=2) iop(6/42=6)

holoCaM-CaMKII.loop4.water2.frame158 

   -3  1 
C         78.76739       88.98990       42.28614
C         78.23009       87.65915       42.70498
O         78.65555       86.65112       42.15784
H         79.52623       88.86631       41.48328
H         77.94254       89.62923       41.91267
H         79.25263       89.47625       43.15846
N         77.29522       87.57479       43.69427
C         76.84848       86.29253       44.21755
C         75.65421       85.75571       43.42644
O         75.04920       86.50063       42.66933
C         76.61748       86.40452       45.73662
C         76.44402       85.05452       46.33542
O         75.39626       84.75477       46.87717
O         77.42088       84.13939       46.19664
H         76.96862       88.44297       44.14661
H         77.68625       85.57204       44.07296
H         75.73277       87.04889       45.93647
H         77.50686       86.86531       46.21826
N         75.35691       84.42277       43.46919
C         74.41064       83.74431       42.58265
C         73.44639       82.86865       43.38841
O         72.24532       82.98202       43.18908
C         75.20202       82.86790       41.55392
C         76.29392       83.66539       40.77938
C         74.26320       82.15083       40.56402
C         75.77673       84.76832       39.84902
H         75.92613       83.83429       44.08249
H         73.82450       84.48168       41.99151
H         75.73642       82.07422       42.11587
H         76.88322       82.95535       40.15891
H         77.00283       84.12091       41.50239
H         73.56487       81.47451       41.09803
H         73.66054       82.87891       39.98238
H         74.85496       81.53004       39.85686
H         75.19526       85.52960       40.39926
H         76.64149       85.27724       39.37239
H         75.14535       84.34801       39.04082
N         73.91012       81.95649       44.29949
C         73.06613       80.98755       45.00644
C         72.67376       81.44569       46.41555
O         71.99998       80.69923       47.11167
C         73.74348       79.59309       44.94563
C         75.03542       79.47745       45.71679
O         75.77215       78.52379       45.52553
O         75.33260       80.35618       46.68977
H         74.91992       81.92540       44.48981
H         72.10317       80.87703       44.46020
H         73.95953       79.39359       43.87203
H         73.05831       78.79327       45.29900
N         72.95946       82.70719       46.84879
C         72.42491       83.30390       48.06437
C         73.05891       82.84532       49.35692
O         72.33198       82.45648       50.26037
H         73.46478       83.34309       46.21985
H         71.31968       83.17408       48.09106
H         72.61945       84.39643       48.01652
N         74.40687       82.93776       49.54342
C         75.06366       82.71130       50.83156
C         76.05645       83.82747       51.19841
O         76.69160       83.71494       52.23791
C         75.69539       81.30707       50.86685
C         76.79213       81.04532       49.87797
O         77.34187       79.81859       49.82679
O         77.19427       81.91510       49.12620
H         74.99013       83.17745       48.73187
H         74.30304       82.69456       51.64442
H         74.88323       80.57082       50.68139
H         76.09656       81.11602       51.88599
N         76.20862       84.95459       50.43715
C         77.06799       86.07042       50.81353
C         78.55771       85.84805       50.63024
O         79.29307       86.78625       50.90738
H         75.62295       85.09449       49.60372
H         76.84758       86.37244       51.85998
H         76.81672       86.93530       50.15999
N         79.08786       84.69383       50.13045
C         80.51326       84.53822       49.83736
C         80.71126       84.35372       48.34702
O         79.79505       83.90018       47.67400
C         81.13115       83.37991       50.64320
C         81.09915       83.68637       52.15022
C         81.80706       82.63136       52.96074
N         81.35386       81.35730       52.99702
O         82.79871       82.93706       53.60672
H         78.46352       83.91142       49.89749
H         81.07081       85.46211       50.10603
H         82.19439       83.26110       50.33738
H         80.59506       82.42999       50.42224
H         80.05073       83.77833       52.50638
H         81.61051       84.66046       52.31831
H         80.51224       81.08012       52.47237
H         81.84300       80.64722       53.56263
N         81.87677       84.74663       47.75200
C         82.08174       84.71729       46.30805
C         83.15572       83.69748       45.98190
O         84.30462       83.87427       46.36415
C         82.44050       86.13388       45.77428
C         82.61927       86.13443       44.24583
C         81.36028       87.16252       46.15027
H         82.64178       85.10882       48.34286
H         81.14194       84.41150       45.80303
H         83.39794       86.45969       46.23852
H         81.67519       85.83814       43.74066
H         82.90413       87.14904       43.89353
H         83.42506       85.43691       43.93921
H         81.24579       87.22948       47.25254
H         81.64906       88.17124       45.78330
H         80.37998       86.88817       45.70395
N         82.81991       82.57194       45.29558
C         83.75222       81.51273       44.93766
C         84.55333       81.92134       43.70940
O         84.27740       82.96638       43.14334
C         82.91646       80.22653       44.68484
C         83.70830       78.98032       44.39465
N         84.61844       78.51308       45.27942
O         83.51179       78.37279       43.35347
H         81.83392       82.43885       45.04901
H         84.42951       81.32720       45.79888
H         82.20549       80.41215       43.84794
H         82.31474       80.02289       45.59811
H         84.79458       79.00530       46.16659
H         85.15401       77.65759       45.07150
N         85.55550       81.13943       43.22562
C         86.25457       81.41136       41.97286
C         85.28243       81.36644       40.80079
O         85.26398       82.30131       40.01406
C         87.37853       80.37555       41.75873
C         88.01073       80.52656       40.39429
C         88.64270       81.72359       40.01387
C         87.92968       79.46989       39.47312
C         89.17013       81.86191       38.72613
C         88.45875       79.60966       38.18968
C         89.07650       80.80889       37.80926
O         89.57653       80.96081       36.56691
H         85.81975       80.29839       43.75703
H         86.72821       82.41799       42.01555
H         86.94645       79.35502       41.85655
H         88.14915       80.49272       42.55160
H         88.71355       82.55418       40.70488
H         87.44284       78.54075       39.74282
H         89.64338       82.79206       38.43766
H         88.37852       78.78750       37.49029
H         89.51724       80.26012       35.90169
N         84.43529       80.30850       40.64399
C         83.45887       80.19449       39.55946
C         82.64823       81.46692       39.43433
O         82.55618       82.01414       38.34356
C         82.48409       79.01599       39.80999
C         83.15889       77.63691       39.75749
C         82.15233       76.54286       39.98594
O         82.29705       75.69814       41.02493
O         81.20408       76.40811       39.22829
H         84.45610       79.57995       41.36807
H         83.98290       80.02421       38.59274
H         81.70013       79.03667       39.01956
H         81.98175       79.14844       40.79527
H         83.94883       77.55983       40.53212
H         83.62718       77.48976       38.76094
N         82.05128       82.00274       40.52871
C         81.23480       83.20935       40.49193
C         82.03705       84.39318       39.96658
O         81.60975       85.00360       38.99690
C         80.60915       83.47456       41.88130
C         79.69695       82.29170       42.27797
C         78.93097       82.52220       43.54078
O         77.72056       82.43081       43.52937
O         79.55527       82.75466       44.70367
H         82.19886       81.52231       41.42857
H         80.38264       83.04699       39.79351
H         79.99341       84.39639       41.81883
H         81.39907       83.62621       42.64996
H         80.28821       81.36662       42.42013
H         78.96831       82.10802       41.45781
N         83.23421       84.73494       40.51693
C         84.08048       85.80154       40.01722
H         85.04656       85.37176       39.67379
H         83.62242       86.34589       39.16522
H         84.28503       86.52571       40.83261
H         83.58990       84.18991       41.30491
Ca        76.80207       82.00614       46.38617
O         79.07329       79.50499       44.68748
H         78.36139       79.45218       45.37326
H         79.09567       78.60187       44.28297
O         79.64465       80.11182       47.75692
H         79.71599       80.14709       48.74347
H         79.66964       79.14531       47.54267

Ca 1.0



