%chk=holoCaM.loop4.water3.frame436.chk
%nprocshared=20
%mem=10GB
%nosave
#b3lyp/svp scf=(tight,noincore,xqc) Test 
#IOP(5/87=12) Density=Current Pop=(MK,readradii) iop(6/33=2) iop(6/42=6)

holoCaM.loop4.water3.frame436 

   -3  1 
C        114.70722       69.46573       50.08642
C        115.16312       68.37151       51.00073
O        114.37786       67.46900       51.24703
H        113.81659       69.96680       50.51922
H        115.50550       70.21717       49.92003
H        114.43006       69.02103       49.10606
N        116.41913       68.37446       51.53741
C        116.93124       67.28998       52.37103
C        118.31769       67.62612       52.91249
O        119.22387       67.88048       52.12820
C        116.99028       65.98102       51.55134
C        117.51031       64.83843       52.36216
O        118.50314       64.23275       51.99259
O        116.87952       64.47517       53.49500
H        117.03617       69.17596       51.33186
H        116.23844       67.14214       53.22993
H        117.63369       66.12877       50.65636
H        115.98069       65.68879       51.20372
N        118.55275       67.60223       54.25685
C        119.85025       67.86625       54.87723
C        120.41338       66.63861       55.60734
O        121.52339       66.73722       56.10276
C        119.75245       69.07609       55.87114
C        118.69837       68.82671       56.98728
C        119.44988       70.37287       55.10214
C        118.68882       69.86485       58.10958
H        117.76473       67.35916       54.87215
H        120.60314       68.11810       54.09701
H        120.74852       69.20170       56.35122
H        118.88798       67.84139       57.46451
H        117.68910       68.82174       56.54085
H        119.46184       71.25159       55.77821
H        120.22922       70.54592       54.33059
H        118.45797       70.31692       54.60562
H        117.91217       69.58316       58.85409
H        119.67345       69.89000       58.62059
H        118.43433       70.87529       57.73292
N        119.69479       65.48029       55.76136
C        120.15540       64.36454       56.60008
C        120.05425       62.97801       55.95448
O        120.53570       62.02900       56.56422
C        119.38075       64.39712       57.93578
C        117.87176       64.28259       57.82175
O        117.25615       64.16893       56.62037
O        117.20413       64.30950       58.84102
H        118.75107       65.44077       55.37363
H        121.23000       64.50551       56.84881
H        119.61232       65.36201       58.43903
H        119.75880       63.58186       58.59139
N        119.44923       62.76257       54.75606
C        119.35342       61.46202       54.09869
C        118.51366       60.40105       54.80956
O        118.42479       59.30758       54.26821
H        119.07155       63.56633       54.25008
H        120.38047       61.06388       53.94796
H        118.90123       61.61065       53.09390
N        117.89115       60.61051       56.00735
C        117.16701       59.55773       56.73211
C        115.82986       59.13969       56.10663
O        115.18052       58.27392       56.67906
C        116.96063       59.95616       58.21897
C        116.14087       61.19011       58.46426
O        115.73012       61.86101       57.54084
O        115.87536       61.57629       59.72511
H        118.00352       61.52186       56.46574
H        117.81688       58.65509       56.76684
H        117.95385       60.11899       58.68723
H        116.47004       59.11104       58.74783
N        115.34773       59.67382       54.94901
C        114.07030       59.27671       54.37030
C        112.86227       59.90408       55.04941
O        111.76572       59.69012       54.55181
H        115.91332       60.35131       54.42302
H        113.98907       58.16768       54.33046
H        114.04110       59.64274       53.32055
N        112.97478       60.73643       56.12899
C        111.86505       61.52008       56.66273
C        112.17280       63.03348       56.53075
O        112.94006       63.28462       55.38497
C        111.60451       61.21126       58.15038
C        111.07269       59.79754       58.40027
C        110.68677       59.64536       59.85336
N        111.27552       58.71769       60.64116
O        109.82417       60.37316       60.32477
H        113.89168       60.88999       56.54674
H        110.93934       61.31234       56.08019
H        110.83425       61.91640       58.52504
H        112.53283       61.38045       58.74097
H        111.84082       59.05070       58.10662
H        110.16180       59.62848       57.78571
H        112.00242       58.09068       60.26952
H        111.00118       58.62897       61.63140
N        110.90166       63.77042       56.44663
C        111.00766       65.22023       56.22175
C        110.85562       65.97737       57.53768
O        109.88790       65.74625       58.25008
C        109.92462       65.66337       55.19874
C        110.20452       67.09673       54.71197
C        109.87848       64.72841       53.97589
H        110.19729       63.52083       57.17657
H        111.98199       65.45673       55.74896
H        108.92149       65.62202       55.67706
H        111.19428       67.14639       54.20411
H        109.42847       67.42188       53.98782
H        110.20636       67.81019       55.55765
H        109.10697       65.07396       53.25550
H        110.85849       64.69409       53.46104
H        109.60248       63.69633       54.28012
N        111.74236       66.94900       57.88438
C        111.62943       67.76610       59.08984
C        111.05874       69.12334       58.71308
O        110.84303       69.37038       57.54210
C        113.04070       67.86222       59.72644
C        113.15637       68.69840       60.97557
N        112.46903       68.38089       62.09551
O        113.90393       69.66512       60.98212
H        112.48395       67.18962       57.21530
H        110.91491       67.30540       59.80660
H        113.73757       68.27724       58.96314
H        113.38513       66.84133       59.98279
H        111.84048       67.56601       62.11691
H        112.56948       68.95554       62.94495
N        110.72177       70.03255       59.66401
C        110.20755       71.37037       59.36773
C        111.23423       72.23377       58.63255
O        110.84617       72.91034       57.68954
C        109.59988       72.02510       60.63578
C        110.45063       71.93639       61.88387
C        110.05302       71.07200       62.92328
C        111.62819       72.67986       62.03114
C        110.82852       70.93915       64.07426
C        112.40421       72.54927       63.18980
C        112.00820       71.67263       64.21209
O        112.75029       71.52492       65.32757
H        110.81043       69.74248       60.64432
H        109.33341       71.27866       58.68123
H        108.66721       71.45006       60.83320
H        109.27951       73.07102       60.43927
H        109.14856       70.48166       62.83704
H        111.94169       73.35950       61.25305
H        110.51381       70.25779       64.85521
H        113.31401       73.12609       63.29162
H        113.57875       72.00546       65.46285
N        112.56648       72.20233       58.93961
C        113.58760       72.95951       58.19647
C        113.74602       72.51118       56.73634
O        114.53747       73.11628       56.02579
C        114.97605       72.82204       58.87317
C        115.04705       73.38913       60.29942
C        114.75858       74.86429       60.33674
O        115.45569       75.64379       59.70659
O        113.73521       75.33519       61.07374
H        112.86102       71.61428       59.72975
H        113.29813       74.03321       58.19356
H        115.74026       73.35917       58.26777
H        115.26261       71.74697       58.89625
H        116.07217       73.22398       60.69489
H        114.34411       72.84720       60.96083
N        113.04219       71.46809       56.22133
C        113.17343       70.95279       54.86636
C        111.89681       71.25847       54.09812
O        111.97889       71.86363       53.03885
C        113.44752       69.43415       54.93364
C        114.74590       69.11224       55.70442
C        114.94674       67.63331       55.90712
O        115.88542       67.22778       56.57015
O        114.08111       66.74349       55.40045
H        112.38075       70.97888       56.82126
H        114.02082       71.43275       54.32681
H        113.51479       69.01378       53.90578
H        112.59568       68.94622       55.45382
H        114.69997       69.57338       56.71341
H        115.61903       69.53401       55.15949
N        110.67606       70.91496       54.60013
C        109.41364       71.22546       53.96429
H        108.82869       71.89656       54.63031
H        109.54361       71.72734       52.98427
H        108.83830       70.28788       53.81640
H        110.61925       70.43723       55.50136
Ca       115.02052       63.96726       56.13186
O        113.84709       64.64477       58.84535
H        114.79260       64.93343       58.81533
H        113.88086       63.70305       59.14581
O        114.91003       62.46818       53.24996
H        115.64462       62.13673       52.67504
H        114.14114       62.57002       52.63601
O        113.45993       65.07619       53.18640
H        112.96978       64.96834       52.33463
H        113.86928       65.97141       53.11906

Ca 1.0



