%chk=holoCaM-CaMKII.loop4.water2.frame35.chk
%nprocshared=20
%mem=10GB
%nosave
#b3lyp/svp scf=(tight,noincore,xqc) Test 
#IOP(5/87=12) Density=Current Pop=(MK,readradii) iop(6/33=2) iop(6/42=6)

holoCaM-CaMKII.loop4.water2.frame35 

   -3  1 
C         10.99164       74.14142       19.26272
C         10.19751       75.11094       18.43559
O         10.52244       76.28699       18.40869
H         11.83040       74.65162       19.78189
H         10.32900       73.68416       20.02926
H         11.40089       73.33811       18.61523
N          9.11832       74.66892       17.73689
C          8.23443       75.52973       16.95258
C          7.57350       76.56851       17.84668
O          6.98001       76.20413       18.85213
C          7.18439       74.65645       16.24310
C          6.07775       75.43627       15.58332
O          4.93838       75.24018       15.96824
O          6.26854       76.33920       14.59668
H          8.90839       73.65884       17.78548
H          8.81068       76.03782       16.15953
H          6.71257       73.99283       17.00164
H          7.68983       74.00489       15.49999
N          7.61543       77.88916       17.50133
C          7.03223       78.96516       18.29602
C          5.84828       79.55704       17.54561
O          4.74964       79.54534       18.08414
C          8.10700       80.05291       18.61048
C          9.32756       79.42439       19.32899
C          7.49126       81.18905       19.45364
C         10.48681       80.39865       19.55161
H          8.07313       78.14743       16.61675
H          6.65545       78.56682       19.26560
H          8.46515       80.48463       17.64975
H          9.73028       78.61291       18.69392
H          9.01801       78.98772       20.30354
H          8.22152       82.00261       19.63175
H          6.63411       81.65500       18.92496
H          7.13679       80.79961       20.43196
H         10.81989       80.82736       18.58274
H         10.20736       81.21924       20.24130
H         11.34090       79.85433       20.00722
N          5.99704       80.10260       16.30139
C          4.89689       80.73063       15.56387
C          3.75228       79.77876       15.20349
O          2.74944       80.25648       14.69056
C          5.42804       81.45757       14.30924
C          6.11237       80.54007       13.33279
O          5.43760       79.53168       12.74942
O          7.28613       80.71924       13.05327
H          6.94069       80.11542       15.88762
H          4.46473       81.51788       16.22156
H          6.14966       82.23743       14.64158
H          4.59290       81.97790       13.79261
N          3.79542       78.44534       15.47813
C          2.66128       77.55980       15.29088
C          2.32755       77.27581       13.84869
O          1.18160       77.45976       13.46411
H          4.63086       78.03526       15.91307
H          1.77963       77.96050       15.83733
H          2.89814       76.57961       15.74864
N          3.26342       76.72828       13.02163
C          2.95099       76.17833       11.70450
C          3.20586       74.66754       11.65052
O          2.82297       74.05804       10.66173
C          3.67811       76.94539       10.57705
C          5.18484       76.90199       10.60177
O          5.81134       77.48725        9.73338
O          5.85746       76.23749       11.55650
H          4.22164       76.64376       13.37513
H          1.86337       76.30090       11.50799
H          3.36517       78.01072       10.62509
H          3.34100       76.53572        9.59959
N          3.82034       73.99057       12.67034
C          3.97689       72.54496       12.71244
C          5.42440       72.10756       12.65127
O          5.70268       70.98013       13.03493
H          4.18657       74.49581       13.48534
H          3.43002       72.02930       11.89494
H          3.53135       72.19601       13.66983
N          6.37998       72.89310       12.07646
C          7.76723       72.47872       11.88328
C          8.72743       73.48933       12.48395
O          8.28590       74.47355       13.05282
C          8.02644       72.29487       10.37473
C          7.19874       71.12418        9.81725
C          7.47251       70.83794        8.36259
N          6.86092       69.79130        7.76311
O          8.24820       71.53246        7.72130
H          6.10427       73.80341       11.68672
H          7.97136       71.50848       12.38815
H          9.09486       72.05010       10.20338
H          7.78963       73.23492        9.82921
H          6.11370       71.32975        9.93926
H          7.45417       70.20890       10.39507
H          6.21231       69.18986        8.29253
H          7.04322       69.57451        6.77237
N         10.07366       73.28262       12.41290
C         11.07551       74.15256       13.02016
C         11.98828       74.69646       11.92732
O         12.48850       73.90680       11.13699
C         11.88549       73.33921       14.07030
C         12.87810       74.23759       14.82481
C         10.95542       72.66382       15.09287
H         10.41917       72.43622       11.93579
H         10.59316       74.99935       13.55510
H         12.45445       72.53645       13.55034
H         13.59274       74.71493       14.12576
H         12.33288       75.02826       15.38263
H         13.46525       73.63823       15.55276
H         10.26629       71.95152       14.59228
H         11.55040       72.08374       15.83026
H         10.35248       73.42209       15.63283
N         12.29301       76.02783       11.85487
C         13.18347       76.59035       10.83495
C         14.56218       76.87176       11.41788
O         14.80038       76.53552       12.56312
C         12.56110       77.83163       10.13372
C         12.68969       79.14836       10.87607
N         12.03560       79.39432       12.03059
O         13.39519       80.02534       10.39802
H         11.93761       76.64169       12.59736
H         13.33312       75.83969       10.02825
H         11.50585       77.63650        9.85135
H         13.11122       77.96466        9.17625
H         11.40152       78.70351       12.44368
H         12.14393       80.30654       12.49880
N         15.52510       77.48663       10.67835
C         16.87883       77.77423       11.15647
C         16.89033       78.56419       12.46172
O         17.50669       78.11034       13.41595
C         17.63054       78.56580       10.06074
C         18.99971       79.03962       10.48581
C         20.01814       78.12805       10.80667
C         19.26176       80.41873       10.56354
C         21.27973       78.59238       11.19654
C         20.51942       80.87920       10.95443
C         21.53476       79.96708       11.27118
O         22.75507       80.40009       11.64634
H         15.28107       77.77267        9.71868
H         17.41173       76.81315       11.33459
H         17.01057       79.45060        9.79447
H         17.72233       77.94266        9.14485
H         19.83747       77.06196       10.75268
H         18.49087       81.14147       10.32483
H         22.06062       77.88328       11.43999
H         20.70174       81.94513       11.00950
H         22.96902       81.34247       11.70577
N         16.26544       79.76831       12.55986
C         16.33756       80.62568       13.74508
C         15.85431       79.90809       14.98939
O         16.57565       79.87910       15.97688
C         15.51072       81.91234       13.53794
C         16.10510       82.80838       12.43624
C         15.31776       84.07425       12.23244
O         14.20436       84.32940       12.94847
O         15.69184       84.88461       11.40027
H         15.72754       80.08957       11.74287
H         17.39469       80.92888       13.92022
H         15.51565       82.49598       14.48595
H         14.45763       81.64622       13.29471
H         16.13740       82.26821       11.46808
H         17.14464       83.08247       12.72033
N         14.64708       79.28918       15.00127
C         14.10914       78.58034       16.16132
C         15.07534       77.51256       16.64295
O         15.44991       77.53680       17.80727
C         12.75311       77.96073       15.79431
C         11.69524       79.05427       15.55391
C         10.41621       78.49879       15.02309
O          9.39333       79.33210       14.75709
O         10.30729       77.30829       14.78625
H         14.10380       79.30469       14.12447
H         13.94581       79.29379       17.00044
H         12.38860       77.30573       16.61595
H         12.88667       77.33926       14.88021
H         12.04883       79.79796       14.81549
H         11.49402       79.58332       16.50854
N         15.55121       76.56603       15.79488
C         16.50984       75.56469       16.20312
H         17.42896       76.05676       16.58778
H         16.07177       74.91847       16.99163
H         16.78799       74.93314       15.33224
H         15.24570       76.57456       14.81997
Ca         8.01043       77.13556       13.40441
O          9.12247       76.42762       10.25387
H          8.69055       76.98389        9.55781
H          8.75344       75.52109       10.10996
O          9.09230       79.45280       10.88785
H          9.32622       79.91760       10.04579
H          9.38626       80.07293       11.60095

Ca 1.0



