%chk=holoCaM.loop2.water2.frame305.chk
%nprocshared=20
%mem=10GB
%nosave
#b3lyp/svp scf=(tight,noincore,xqc) Test 
#IOP(5/87=12) Density=Current Pop=(MK,readradii) iop(6/33=2) iop(6/42=6)

holoCaM.loop2.water2.frame305 

   -2  1 
C         18.49408       48.90484       48.25838
C         18.34732       49.50070       46.88177
O         19.01819       50.47100       46.58017
H         18.25578       49.65477       49.03769
H         17.82842       48.02484       48.39666
H         19.54010       48.55254       48.39617
N         17.52338       48.91382       45.97579
C         17.45488       49.25316       44.55356
C         16.64720       50.50928       44.23165
O         15.51302       50.60265       44.68009
C         16.80094       48.05738       43.83940
C         16.71365       48.25745       42.36782
O         15.51083       48.19957       41.76682
O         17.72205       48.47974       41.71713
H         17.01631       48.07274       46.29426
H         18.48616       49.33743       44.14724
H         15.77928       47.88493       44.24244
H         17.40312       47.14679       44.03312
N         17.12535       51.44816       43.34761
C         16.32266       52.57668       42.86500
C         16.11588       52.60739       41.33905
O         15.31920       53.43207       40.91115
C         16.96892       53.89358       43.30662
H         18.08368       51.34632       42.98484
H         15.30876       52.53137       43.31793
H         16.34323       54.75958       42.99759
H         17.07108       53.91797       44.41160
H         17.97605       54.00372       42.84899
N         16.80437       51.81688       40.45296
C         16.64816       51.92913       38.99027
C         16.33432       50.60360       38.27674
O         16.11967       50.63433       37.07243
C         17.88372       52.63094       38.38638
C         19.19007       52.00069       38.77558
O         19.45402       50.72555       38.45926
O         20.02266       52.65061       39.38716
H         17.52481       51.17567       40.81112
H         15.78633       52.58876       38.74570
H         17.89083       53.68278       38.74801
H         17.79710       52.66430       37.27795
N         16.23340       49.42100       38.94309
C         15.79339       48.16528       38.33837
C         16.73678       47.52275       37.33127
O         16.35626       46.49766       36.78285
H         16.38263       49.42836       39.94960
H         14.80797       48.33773       37.85298
H         15.63848       47.41710       39.14577
N         17.95998       48.03856       37.02090
C         18.83327       47.47012       35.98870
C         19.46401       46.10989       36.33102
O         20.20236       45.59855       35.50012
C         19.89779       48.50274       35.55815
C         20.92997       48.89003       36.58087
N         21.85493       49.81732       36.24286
O         20.94132       48.39038       37.69630
H         18.24314       48.91376       37.47082
H         18.21501       47.32510       35.07455
H         19.36602       49.42946       35.24797
H         20.43858       48.11188       34.66982
H         21.84734       50.24896       35.30839
H         22.58012       50.11757       36.89950
N         19.18813       45.43552       37.48485
C         19.64778       44.07591       37.74715
C         21.04199       43.95510       38.33577
O         21.42601       42.83191       38.63112
H         18.50808       45.82913       38.14258
H         19.54807       43.45628       36.82852
H         18.96804       43.63099       38.50571
N         21.84515       45.03140       38.57191
C         23.14949       44.93315       39.23442
C         23.16815       45.79396       40.48810
O         22.18807       46.46954       40.77203
C         24.27814       45.37854       38.26688
C         24.41331       44.42797       37.07898
O         24.04475       46.68127       37.79432
H         21.52030       45.96709       38.29362
H         23.36272       43.88935       39.55527
H         25.26724       45.33561       38.77813
H         24.40854       47.30628       38.47486
H         25.25374       44.75949       36.43192
H         24.63906       43.40077       37.43956
H         23.48239       44.40763       36.47631
N         24.29560       45.86289       41.25375
C         24.45739       46.81012       42.34464
C         25.31101       47.94399       41.81397
O         26.42464       47.69507       41.37165
C         25.11030       46.15168       43.59926
C         24.33388       44.92203       44.13778
C         25.31744       47.18805       44.72363
C         22.88829       45.19635       44.55742
H         25.12356       45.31499       40.97631
H         23.47745       47.22489       42.64936
H         26.12011       45.78156       43.31316
H         24.88133       44.51920       45.01920
H         24.32326       44.12601       43.36364
H         25.81421       46.71659       45.59753
H         25.97206       48.01610       44.38290
H         24.35461       47.62489       45.05467
H         22.82698       45.97371       45.34583
H         22.29170       45.50606       43.68005
H         22.44078       44.26451       44.96289
N         24.85362       49.22603       41.85308
C         25.64054       50.37404       41.41596
C         26.17006       51.08758       42.63805
O         25.89285       50.65238       43.74310
C         24.78610       51.27045       40.50194
C         24.43508       50.52166       39.24470
O         23.22726       49.94515       39.10130
O         25.27463       50.37402       38.37115
H         23.93831       49.41367       42.28893
H         26.54216       50.04499       40.85440
H         25.31830       52.20343       40.21735
H         23.86690       51.56996       41.04984
N         27.03201       52.13124       42.52170
C         27.74916       52.67312       43.67068
C         26.82568       53.20158       44.76859
O         26.99893       52.75104       45.89252
C         28.82509       53.68382       43.21973
C         29.70726       54.14326       44.35834
C         30.43802       53.21370       45.12450
C         29.82281       55.51167       44.65433
C         31.25652       53.64708       46.17015
C         30.65096       55.94083       45.69613
C         31.36473       55.00956       46.45488
H         27.26157       52.47934       41.57792
H         28.31443       51.82215       44.11093
H         28.36412       54.55027       42.71153
H         29.47854       53.18279       42.47236
H         30.37914       52.15299       44.91911
H         29.27905       56.24747       44.07526
H         31.80990       52.92516       46.75713
H         30.74067       56.99669       45.91427
H         32.00410       55.34319       47.26155
N         25.81350       54.10392       44.55963
C         24.89488       54.55437       45.60430
C         24.34171       53.42429       46.45336
O         24.35983       53.51124       47.67285
C         23.74768       55.20014       44.81017
C         24.48356       55.79234       43.63602
C         25.44910       54.66697       43.27381
H         25.40968       55.31108       46.23755
H         23.07818       54.41707       44.38464
H         23.12160       55.90593       45.39653
H         23.84451       56.14002       42.79666
H         25.07372       56.65496       44.02115
H         24.95597       53.87555       42.66727
H         26.29219       55.11312       42.71819
N         23.83531       52.32307       45.84153
C         23.21483       51.20066       46.53349
C         24.20624       50.52151       47.46400
O         23.93171       50.42746       48.65166
C         22.67279       50.19407       45.50045
C         21.61015       50.82278       44.57126
C         21.19731       49.89017       43.48010
O         21.70067       48.78568       43.37744
O         20.42696       50.35084       42.48580
H         23.90075       52.29616       44.81425
H         22.34729       51.56749       47.12695
H         22.22203       49.32074       46.02166
H         23.52097       49.83610       44.87782
H         22.01521       51.71311       44.05315
H         20.73218       51.16211       45.14108
N         25.38606       50.03425       46.98776
C         26.38688       49.38003       47.80407
H         27.33131       49.96275       47.75959
H         26.07530       49.28740       48.86442
H         26.58024       48.36352       47.40202
H         25.60263       50.13948       45.99349
Ca        21.59973       50.25219       40.59821
O         18.72561       46.27987       40.55754
H         18.04460       45.56189       40.57435
H         19.58627       45.81320       40.69200
O         19.84456       46.71163       43.49534
H         20.49645       46.65173       42.75492
H         19.50229       45.78931       43.59547

Ca 1.0



