%chk=holoCaM.loop2.water2.frame124.chk
%nprocshared=20
%mem=10GB
%nosave
#b3lyp/svp scf=(tight,noincore,xqc) Test 
#IOP(5/87=12) Density=Current Pop=(MK,readradii) iop(6/33=2) iop(6/42=6)

holoCaM.loop2.water2.frame124 

   -2  1 
C        109.60839       90.68041      -11.88156
C        110.97216       90.33942      -11.34887
O        111.07323       89.51980      -10.44892
H        108.97443       91.09899      -11.07474
H        109.66946       91.42301      -12.70650
H        109.13167       89.76204      -12.28655
N        112.07809       90.90500      -11.90099
C        113.44014       90.53512      -11.53922
C        113.81412       91.01100      -10.13525
O        113.70807       92.20035       -9.87021
C        114.41488       91.16480      -12.56302
C        115.78605       90.56271      -12.52834
O        116.67324       91.03629      -13.21787
O        116.01912       89.44002      -11.83259
H        111.94063       91.56818      -12.67971
H        113.52052       89.42848      -11.63011
H        114.47178       92.26077      -12.38886
H        114.04380       90.99728      -13.59668
N        114.32764       90.14556       -9.21343
C        114.81833       90.54669       -7.89391
C        116.31907       90.29508       -7.73309
O        116.84479       90.60247       -6.67161
C        114.06618       89.75221       -6.81902
H        114.41380       89.15712       -9.47341
H        114.64148       91.63032       -7.72282
H        114.40015       90.05353       -5.80216
H        112.97449       89.93253       -6.89687
H        114.25851       88.66272       -6.94083
N        117.06008       89.70004       -8.71379
C        118.45010       89.29834       -8.56132
C        119.35545       89.88136       -9.65396
O        120.28595       90.59431       -9.30318
C        118.53260       87.75015       -8.40118
C        117.85718       86.84081       -9.42004
O        117.17495       87.32885      -10.47345
O        117.93766       85.63265       -9.27382
H        116.60329       89.44184       -9.58432
H        118.85590       89.69131       -7.60073
H        118.05849       87.50710       -7.42482
H        119.60708       87.47342       -8.32625
N        119.17718       89.61301      -10.97989
C        120.06466       90.07148      -12.03941
C        120.74197       88.91049      -12.75553
O        121.47125       89.16555      -13.70338
H        118.39015       89.04025      -11.28047
H        120.86008       90.74097      -11.64940
H        119.46289       90.65215      -12.77217
N        120.57550       87.61380      -12.35044
C        121.23958       86.46199      -12.96813
C        120.74604       86.12048      -14.38529
O        121.20088       85.12048      -14.92415
C        121.13276       85.22391      -12.03204
C        119.73843       84.71276      -11.78661
N        119.53174       83.62601      -11.01240
O        118.78458       85.27833      -12.27903
H        120.00669       87.43281      -11.51274
H        122.32839       86.67881      -13.02816
H        121.57537       85.48561      -11.04618
H        121.73124       84.39443      -12.46421
H        120.31960       83.12951      -10.57474
H        118.57493       83.28131      -10.85399
N        119.85972       86.90150      -15.06963
C        119.41962       86.62036      -16.42800
C        118.31300       85.58809      -16.52688
O        117.87405       85.34830      -17.64307
H        119.54222       87.78429      -14.66406
H        120.29090       86.34327      -17.06200
H        118.99226       87.55412      -16.85427
N        117.78886       84.95587      -15.43348
C        116.68047       84.00769      -15.51172
C        115.49690       84.42124      -14.58573
O        115.42393       85.80221      -14.39641
C        117.15923       82.59012      -15.11406
C        118.22769       82.06048      -16.07237
O        117.68966       82.59760      -13.81293
H        118.18197       85.14720      -14.51136
H        116.30033       83.96583      -16.55720
H        116.30773       81.87207      -15.17227
H        116.92457       82.52033      -13.18684
H        119.12883       82.70944      -16.06120
H        118.53029       81.03649      -15.76478
H        117.82676       82.01164      -17.10705
N        114.22558       83.97160      -15.16545
C        113.12534       83.89778      -14.19310
C        113.31863       82.70476      -13.26755
O        113.49507       81.58814      -13.73503
C        111.77126       83.89076      -14.96821
C        111.55848       85.30367      -15.58975
C        110.58767       83.52070      -14.05186
C        110.33379       85.43370      -16.49519
H        114.31631       83.05336      -15.66038
H        113.10748       84.81232      -13.56628
H        111.82191       83.12222      -15.77118
H        112.44424       85.57971      -16.20112
H        111.46420       86.05302      -14.77133
H        110.48469       84.24991      -13.22404
H        109.63720       83.48110      -14.61967
H        110.72748       82.50527      -13.62695
H        110.28055       86.47385      -16.88368
H        110.41773       84.73762      -17.35475
H        109.39110       85.24105      -15.94570
N        113.23365       82.89070      -11.92003
C        113.35803       81.83327      -10.92656
C        111.98176       81.47661      -10.40369
O        111.01159       82.04934      -10.86568
C        114.25983       82.31426       -9.77051
C        115.64956       82.65094      -10.22279
O        115.84067       83.55536      -11.01969
O        116.69750       81.97220       -9.71974
H        112.99028       83.82703      -11.57091
H        113.78418       80.91118      -11.38023
H        114.33226       81.51909       -9.00008
H        113.81219       83.21474       -9.29316
N        111.80861       80.49952       -9.47292
C        110.49308       80.08175       -8.99767
C        109.73228       81.20224       -8.27990
O        108.61519       81.46012       -8.70401
C        110.60677       78.77561       -8.18090
C        109.28039       78.26671       -7.66121
C        108.17975       78.08145       -8.52046
C        109.14091       77.95237       -6.29809
C        106.96475       77.60598       -8.01943
C        107.92875       77.46105       -5.80566
C        106.84027       77.29227       -6.66436
H        112.64140       79.99666       -9.12967
H        109.89448       79.80498       -9.89392
H        111.32333       78.88552       -7.34565
H        111.02927       78.00191       -8.85846
H        108.25013       78.30976       -9.57516
H        109.97429       78.07283       -5.61700
H        106.12011       77.47716       -8.68393
H        107.83445       77.20967       -4.75739
H        105.90129       76.91577       -6.28042
N        110.22847       81.93129       -7.22638
C        109.51047       83.03979       -6.59313
C        108.93521       84.02477       -7.59465
O        107.77609       84.40186       -7.49734
C        110.60381       83.74683       -5.77248
C        111.47959       82.59178       -5.36285
C        111.55129       81.77954       -6.65387
H        108.71830       82.63109       -5.92714
H        111.23821       84.38425       -6.43113
H        110.22185       84.38508       -4.94712
H        112.46720       82.87039       -4.93688
H        110.91269       82.00403       -4.60584
H        112.29480       82.19741       -7.36736
H        111.81146       80.74228       -6.38186
N        109.73232       84.46601       -8.59943
C        109.36218       85.44629       -9.61157
C        108.18516       84.94191      -10.43532
O        107.20523       85.65956      -10.57336
C        110.59839       85.74578      -10.49599
C        111.77384       86.30904       -9.65029
C        113.04515       86.50589      -10.42030
O        113.09072       86.33574      -11.62449
O        114.17111       86.82046       -9.75633
H        110.67290       84.05022       -8.64479
H        109.07720       86.40554       -9.12419
H        110.33159       86.47989      -11.28768
H        110.92150       84.80326      -10.98386
H        112.04301       85.61033       -8.83768
H        111.47991       87.26772       -9.17459
N        108.20206       83.68981      -10.96916
C        107.12293       83.10358      -11.73553
H        106.28573       83.81146      -11.89969
H        107.51300       82.77320      -12.72146
H        106.73566       82.21213      -11.19586
H        109.01044       83.09496      -10.79261
Ca       116.36887       86.29195      -12.34701
O        117.06287       88.09807      -14.28947
H        117.67821       88.78322      -13.92965
H        116.91909       88.34765      -15.23469
O        113.95732       88.19275      -13.96923
H        113.86413       88.45885      -14.91721
H        113.19754       87.58037      -13.81134

Ca 1.0



