%chk=holoCaM.loop1.water2.frame247.chk
%nprocshared=20
%mem=10GB
%nosave
#b3lyp/svp scf=(tight,noincore,xqc) Test 
#IOP(5/87=12) Density=Current Pop=(MK,readradii) iop(6/33=2) iop(6/42=6)

holoCaM.loop1.water2.frame247 

   0  1 
C         70.00590      101.79943       56.97499
C         70.59399      102.41094       55.74421
O         71.76937      102.21535       55.48321
H         69.16434      101.13309       56.69561
H         70.77201      101.20987       57.52227
H         69.63551      102.60754       57.64015
N         69.82307      103.17121       54.92385
C         70.36339      103.82942       53.74388
C         71.34843      104.90389       54.19816
O         70.93413      105.82120       54.89364
C         69.20508      104.43706       52.92949
C         69.61366      104.98492       51.59797
O         68.77338      105.53027       50.90735
O         70.87139      104.85429       51.13677
H         68.82170      103.27695       55.15158
H         70.85715      103.05741       53.10920
H         68.72026      105.24126       53.52429
H         68.44573      103.64813       52.73000
N         72.67120      104.83389       53.87318
C         73.68336      105.74364       54.41092
C         74.06942      106.86081       53.45552
O         74.82647      107.72739       53.87217
C         74.95356      104.96227       54.82577
C         74.70512      103.78131       55.77736
C         73.96651      104.19884       57.05387
C         73.79078      103.01897       58.01448
N         73.01468      103.42533       59.18494
H         72.98162      104.04199       53.30825
H         73.27035      106.25907       55.30366
H         75.66311      105.66680       55.31235
H         75.44918      104.55792       53.91420
H         75.69151      103.34033       56.04020
H         74.12263      102.99923       55.24992
H         72.95802      104.57715       56.78496
H         74.53267      105.00706       57.56523
H         74.78858      102.64740       58.33532
H         73.26291      102.18637       57.50354
H         73.50727      104.19525       59.69313
H         72.06544      103.75140       58.88801
H         72.90389      102.60696       59.82521
N         73.58921      106.93178       52.18317
C         73.87344      108.04441       51.28265
C         72.57989      108.76310       50.92128
O         72.49396      109.95411       51.18933
C         74.74922      107.63761       50.07497
C         74.38793      106.44595       49.23388
O         75.03230      106.24569       48.21672
O         73.45503      105.54573       49.58386
H         72.96959      106.18553       51.84894
H         74.49964      108.81135       51.79353
H         75.77722      107.42934       50.44492
H         74.81703      108.52711       49.41022
N         71.51255      108.10881       50.38053
C         70.22141      108.74607       50.14326
C         69.77094      108.56942       48.71378
O         69.55794      109.55980       48.02929
H         71.59250      107.10325       50.19217
H         70.24689      109.82909       50.39505
H         69.46598      108.27298       50.80593
N         69.59798      107.31679       48.20475
C         69.17580      107.03740       46.82820
C         67.92012      106.16842       46.72853
O         67.41575      106.04090       45.62181
C         70.33719      106.38252       46.03765
C         70.84835      105.09933       46.63877
O         70.37294      104.65075       47.66527
O         71.93773      104.49545       46.15060
H         69.81292      106.53682       48.83462
H         68.93424      107.99626       46.32047
H         71.18770      107.09848       46.03417
H         70.03566      106.19999       44.98525
N         67.37746      105.51291       47.79869
C         66.17860      104.68751       47.71259
C         66.44147      103.20655       47.93527
O         65.47601      102.45485       47.91460
H         67.82224      105.57898       48.71755
H         65.69775      104.78024       46.71526
H         65.44954      105.05328       48.46649
N         67.69971      102.69546       48.08998
C         67.98773      101.26174       48.14540
C         69.16627      100.94777       49.07102
O         69.80408      101.85173       49.59581
C         68.25651      100.70462       46.71689
C         67.02755      100.73942       45.79913
O         69.33240      101.36752       46.10754
H         68.49550      103.33562       48.04854
H         67.11218      100.72597       48.57619
H         68.52637       99.63115       46.79782
H         69.05106      102.30109       45.91795
H         66.19520      100.16136       46.25379
H         66.69245      101.77865       45.60595
H         67.28302      100.27451       44.82287
N         69.46451       99.64432       49.34503
C         70.49202       99.18241       50.27519
C         71.46249       98.23630       49.55900
O         71.03358       97.32063       48.87096
C         69.77240       98.56284       51.51659
C         69.19669       99.74103       52.36315
C         70.70726       97.68946       52.36957
C         68.39731       99.33762       53.59961
H         68.87273       98.91381       48.91932
H         71.09947      100.02570       50.66266
H         68.95353       97.89565       51.16614
H         68.52597      100.35931       51.73049
H         70.03592      100.39057       52.70399
H         71.11003       96.84689       51.77006
H         71.54069       98.28741       52.77489
H         70.15496       97.22426       53.21057
H         67.52085       98.72443       53.30775
H         69.02360       98.78519       54.32838
H         68.03837      100.25853       54.10907
N         72.80780       98.38929       49.75033
C         73.86515       97.57813       49.14968
C         74.38365       96.56691       50.16373
O         73.85551       96.49171       51.25913
C         75.04824       98.50046       48.71562
C         74.62627       99.59799       47.75167
O         75.62694       99.09460       49.85007
H         73.11458       99.09653       50.42268
H         73.47961       97.02186       48.26746
H         75.81162       97.88140       48.19489
H         76.54772       99.37394       49.60492
H         73.91781      100.28280       48.25738
H         75.52110      100.18398       47.45297
H         74.16523       99.16386       46.84173
N         75.45149       95.77423       49.87304
C         76.09032       94.88884       50.84704
C         76.59299       95.68350       52.05155
O         76.25662       95.34084       53.17604
C         77.26958       94.11734       50.19202
C         76.76521       93.12709       49.13264
O         78.18021       95.01846       49.61162
H         75.85744       95.83718       48.92906
H         75.35683       94.13383       51.21036
H         77.78329       93.53233       50.98949
H         78.96713       94.49333       49.31208
H         76.24017       93.64775       48.30566
H         77.62238       92.56627       48.70358
H         76.07099       92.39560       49.59740
N         77.39642       96.76825       51.87404
C         77.97227       97.57177       52.95336
C         76.90067       98.13505       53.87088
O         76.99260       97.96616       55.07870
C         78.79700       98.71516       52.31493
C         79.55396       99.60029       53.31602
C         80.39066      100.63748       52.55017
C         81.21027      101.52985       53.48860
N         82.01365      102.48328       52.72129
H         77.60948       97.04267       50.90312
H         78.66607       96.93876       53.55043
H         78.12904       99.35692       51.69799
H         79.54789       98.24913       51.63902
H         80.22764       98.96452       53.93070
H         78.83679      100.12098       53.98782
H         79.71626      101.27563       51.93713
H         81.09091      100.10505       51.86920
H         81.88650      100.89686       54.10507
H         80.52741      102.08531       54.16879
H         82.67271      101.97235       52.08919
H         81.39238      103.10260       52.15140
H         82.57015      103.07478       53.37946
N         75.85799       98.82844       53.34672
C         74.81583       99.47972       54.13695
C         74.09920       98.44814       55.00054
O         74.07218       98.60742       56.21273
C         73.84961      100.25771       53.20117
C         74.60693      101.33412       52.37575
C         73.76502      102.07569       51.37399
O         73.12905      101.47747       50.52678
O         73.82942      103.41405       51.30643
H         75.81516       98.88142       52.32303
H         75.28284      100.23423       54.80877
H         73.05190      100.74336       53.80002
H         73.37157       99.53775       52.51802
H         75.40911      100.86898       51.77888
H         75.08789      102.06073       53.06379
N         73.55749       97.33114       54.44234
C         72.94493       96.25336       55.19479
H         71.90184       96.10122       54.84834
H         73.51431       95.31514       55.01483
H         72.93494       96.44793       56.28702
H         73.61541       97.21609       53.42894
Ca        73.13973      104.02348       47.96416
O         72.20653      101.29451       46.74585
H         71.64267      102.02924       46.40857
H         73.09317      101.48108       46.34860
O         75.65425      102.78103       47.16077
H         75.86549      102.74422       48.12775
H         75.60059      103.74728       46.95318

Ca 1.0



