%chk=holoCaM-CaMKII.loop2.water2.frame96.chk
%nprocshared=20
%mem=10GB
%nosave
#b3lyp/svp scf=(tight,noincore,xqc) Test 
#IOP(5/87=12) Density=Current Pop=(MK,readradii) iop(6/33=2) iop(6/42=6)

holoCaM-CaMKII.loop2.water2.frame96 

   -2  1 
C         16.65806       65.19166       55.76604
C         15.24317       65.69058       55.85262
O         14.56248       65.76656       54.84143
H         17.35878       65.95872       56.15575
H         16.75694       64.27206       56.38452
H         16.93362       64.93937       54.72070
N         14.72389       66.00465       57.06757
C         13.32583       66.35784       57.29173
C         12.95598       67.71247       56.68597
O         13.63739       68.68992       56.96202
C         13.05777       66.37136       58.81289
C         11.60078       66.34559       59.16606
O         11.23587       66.39200       60.46007
O         10.74744       66.21121       58.30536
H         15.34402       65.89759       57.88663
H         12.70294       65.54767       56.85342
H         13.55089       67.25631       59.26994
H         13.48793       65.45654       59.27431
N         11.84924       67.84424       55.89449
C         11.40955       69.10093       55.28562
C         10.02471       69.55638       55.77465
O          9.52324       70.53842       55.24414
C         11.38460       68.90734       53.76389
H         11.27878       67.00780       55.71085
H         12.12459       69.92345       55.50588
H         10.66101       68.11147       53.48301
H         11.09436       69.85011       53.25178
H         12.39353       68.61653       53.40094
N          9.35166       68.92054       56.78091
C          7.97150       69.25471       57.16832
C          7.54397       68.77449       58.57467
O          6.39974       69.03142       58.92506
C          6.99556       68.70367       56.09544
C          7.34031       67.28336       55.76482
O          7.65842       66.98626       54.62376
O          7.49827       66.38178       56.74445
H          9.80258       68.11481       57.21257
H          7.85558       70.35954       57.22155
H          7.09207       69.29905       55.16178
H          5.94116       68.78673       56.43450
N          8.37382       68.14149       59.45800
C          7.98347       67.77995       60.81909
C          6.93750       66.67819       60.95649
O          6.59417       66.36938       62.08888
H          9.35398       67.98312       59.21936
H          7.62242       68.69363       61.33854
H          8.88712       67.42582       61.36102
N          6.38252       66.03846       59.88719
C          5.34627       65.00597       60.00274
C          5.82364       63.67252       60.60515
O          5.00676       62.76757       60.70936
C          4.66781       64.77386       58.62962
C          5.54739       64.20072       57.54891
N          5.02975       63.97229       56.32268
O          6.72080       63.94522       57.76339
H          6.65486       66.34245       58.94994
H          4.53902       65.40666       60.65575
H          4.26925       65.74715       58.26732
H          3.80457       64.08741       58.76639
H          4.04310       64.18477       56.11760
H          5.61626       63.58266       55.57602
N          7.09798       63.47675       61.05378
C          7.54760       62.24766       61.69857
C          7.81241       61.06881       60.77089
O          8.19581       60.02922       61.28814
H          7.76111       64.25734       61.03666
H          6.81905       61.96316       62.48942
H          8.51554       62.45543       62.20375
N          7.66681       61.13824       59.41583
C          7.95204       60.02375       58.50588
C          9.00692       60.39870       57.46978
O          9.43109       61.54272       57.41115
C          6.64426       59.59540       57.78288
C          5.66319       58.93563       58.74971
O          6.01795       60.69990       57.17929
H          7.33559       62.01404       59.00103
H          8.35615       59.14822       59.05994
H          6.85177       58.82118       57.01072
H          6.56449       60.95279       56.39100
H          6.12671       58.02845       59.19482
H          5.36978       59.63248       59.56130
H          4.75156       58.62116       58.19743
N          9.42359       59.46307       56.56681
C         10.27669       59.75263       55.42179
C          9.38116       59.78602       54.19997
O          8.65708       58.83215       53.94782
C         11.44148       58.71915       55.27648
C         12.45706       58.90091       56.43650
C         12.14907       58.87920       53.90986
C         13.65034       57.93824       56.38705
H          9.02635       58.51310       56.62389
H         10.74262       60.75277       55.51739
H         11.01856       57.69051       55.30537
H         11.93294       58.74652       57.40311
H         12.85873       59.93876       56.42074
H         12.60626       59.88472       53.81647
H         12.93033       58.10866       53.76068
H         11.43681       58.72436       53.07447
H         13.30346       56.88436       56.39945
H         14.27800       58.11002       55.48793
H         14.30434       58.11316       57.26689
N          9.42845       60.86401       53.36939
C          8.64808       60.99751       52.14957
C          9.54850       60.72001       50.96831
O         10.71303       60.42007       51.17563
C          8.04848       62.41461       52.06767
C          7.16801       62.71670       53.24464
O          5.98833       62.97986       53.07665
O          7.68204       62.72078       54.48944
H         10.11564       61.60391       53.56342
H          7.82932       60.24459       52.12192
H          7.45384       62.51460       51.13484
H          8.86619       63.16850       52.03873
N          9.07597       60.73255       49.69388
C          9.91491       60.33874       48.57221
C         11.12198       61.25449       48.36152
O         12.21909       60.71491       48.33054
C          9.10411       60.18206       47.27219
C          9.96985       59.57072       46.19082
C         10.25996       60.28446       45.01731
C         10.51405       58.28135       46.36061
C         11.08659       59.72251       44.03812
C         11.34048       57.72652       45.38200
C         11.62823       58.44679       44.22172
H          8.08102       60.94990       49.52875
H         10.29511       59.32186       48.81507
H          8.69923       61.16442       46.95824
H          8.23989       59.50549       47.44890
H          9.85648       61.27732       44.86471
H         10.30645       57.70330       47.25228
H         11.31208       60.27827       43.13797
H         11.75972       56.73871       45.52664
H         12.27136       58.01541       43.46598
N         11.04828       62.61634       48.19065
C         12.22211       63.43348       47.90224
C         13.21038       63.46090       49.05534
O         14.36034       63.81210       48.82948
C         11.63654       64.81055       47.57341
C         10.39603       64.84145       48.44362
C          9.84848       63.42441       48.26596
H         12.75459       63.04154       47.00716
H         12.33535       65.66810       47.68247
H         11.27209       64.78970       46.52116
H         10.73276       64.95975       49.49920
H          9.66707       65.64789       48.21503
H          9.20749       63.19601       49.14085
H          9.28446       63.32240       47.31507
N         12.84598       63.08873       50.31112
C         13.79431       62.96255       51.40957
C         14.64738       61.73364       51.17291
O         15.86518       61.83419       51.16411
C         13.04883       62.82927       52.74839
C         12.20106       64.07801       53.02035
C         11.41198       63.98527       54.28174
O         10.52820       64.95312       54.52945
O         11.51201       63.04133       55.04547
H         11.85689       62.86477       50.49171
H         14.42577       63.87725       51.48664
H         13.78326       62.70166       53.57425
H         12.38329       61.94190       52.72204
H         11.46281       64.21446       52.20387
H         12.83901       64.98550       53.05874
N         14.04293       60.53316       50.94646
C         14.73713       59.29146       50.69642
H         15.83745       59.40444       50.75823
H         14.40741       58.53809       51.44290
H         14.46613       58.92400       49.68338
H         13.02059       60.49265       50.92571
Ca         8.98622       64.85649       56.12757
O          9.53123       63.87279       59.27931
H         10.19744       63.17986       59.06025
H          9.82997       64.20356       60.16163
O         12.38386       63.15129       57.76485
H         12.11777       62.22346       57.54695
H         13.32508       63.08082       58.06048

Ca 1.0



