%chk=holoCaM.loop2.water2.frame182.chk
%nprocshared=20
%mem=10GB
%nosave
#b3lyp/svp scf=(tight,noincore,xqc) Test 
#IOP(5/87=12) Density=Current Pop=(MK,readradii) iop(6/33=2) iop(6/42=6)

holoCaM.loop2.water2.frame182 

   -2  1 
C         25.64155       81.77506       99.51588
C         26.61820       82.91328       99.39513
O         27.43251       82.90334       98.48429
H         25.01277       81.72054       98.60252
H         26.19035       80.81815       99.63856
H         24.97026       81.90503      100.39215
N         26.58313       83.94352      100.28367
C         27.48147       85.09267      100.23079
C         28.92760       84.67939      100.47844
O         29.20049       84.02214      101.47359
C         27.07048       86.12082      101.29959
C         27.96711       87.32605      101.28199
O         28.69879       87.52432      102.23848
O         28.00292       88.20172      100.25215
H         25.86447       83.91758      101.02432
H         27.37912       85.59192       99.24545
H         27.14262       85.62962      102.29650
H         26.02208       86.45058      101.16089
N         29.91357       85.11866       99.64590
C         31.33491       84.86613       99.85091
C         32.12417       86.15389      100.10186
O         33.32712       86.05341      100.30096
C         31.88753       84.16004       98.60708
H         29.64678       85.69482       98.83997
H         31.49143       84.20503      100.73044
H         31.34010       83.21026       98.43100
H         31.76775       84.80889       97.71090
H         32.96625       83.92577       98.73190
N         31.54075       87.39157      100.07661
C         32.28602       88.64295      100.19989
C         31.76374       89.52816      101.33627
O         32.55361       89.85261      102.21267
C         32.36396       89.34184       98.81847
C         31.10345       89.33238       97.98764
O         29.99608       89.96621       98.38791
O         31.09108       88.74715       96.91625
H         30.53419       87.47186       99.88840
H         33.35119       88.44441      100.45868
H         33.11449       88.77279       98.22516
H         32.75661       90.37492       98.93403
N         30.47007       89.95179      101.40725
C         29.94555       90.80232      102.47272
C         29.27364       92.06737      101.95890
O         28.75516       92.81379      102.77742
H         29.80992       89.63313      100.69776
H         30.73917       91.09349      103.19331
H         29.17954       90.22140      103.03003
N         29.22218       92.37524      100.62952
C         28.55471       93.55723      100.08011
C         27.02667       93.56542      100.25034
O         26.40884       94.51835       99.79435
C         28.93967       93.73677       98.58716
C         28.51383       92.62843       97.65367
N         28.81647       92.71000       96.33947
O         27.90774       91.65492       98.06897
H         29.72010       91.76767       99.97196
H         28.95607       94.45384      100.60198
H         30.04622       93.82514       98.52268
H         28.50409       94.68826       98.21347
H         29.33560       93.51742       95.96655
H         28.53109       91.96444       95.69227
N         26.34520       92.58427      100.91405
C         24.90697       92.62771      101.14034
C         24.07216       92.21157       99.94444
O         22.85724       92.20341      100.08329
H         26.85351       91.80810      101.35127
H         24.61303       93.63616      101.50574
H         24.65736       91.90476      101.94703
N         24.62961       91.82116       98.76024
C         23.85345       91.35735       97.61710
C         24.28046       89.90351       97.25441
O         25.59217       89.82986       96.77304
C         23.99482       92.36404       96.44121
C         23.47575       93.75259       96.83251
O         25.33837       92.48483       96.04498
H         25.64582       91.84642       98.65435
H         22.77382       91.31205       97.88168
H         23.36297       92.03494       95.58421
H         25.44498       91.98258       95.19517
H         23.55626       94.44515       95.96788
H         22.40905       93.69581       97.13843
H         24.06766       94.17617       97.67191
N         23.32063       89.23851       96.35415
C         23.82209       88.07273       95.59688
C         24.53246       88.51702       94.32015
O         23.95389       89.24202       93.52232
C         22.62749       87.10532       95.31994
C         22.21820       86.44191       96.66518
C         22.98224       86.02826       94.27535
C         21.00505       85.51631       96.59161
H         22.81196       89.89730       95.72216
H         24.55127       87.49739       96.20688
H         21.77747       87.69190       94.90559
H         21.98732       87.23292       97.41038
H         23.07322       85.84233       97.04815
H         22.11555       85.37322       94.06099
H         23.24102       86.49716       93.30451
H         23.82941       85.40704       94.62304
H         20.11417       86.07535       96.24053
H         21.19210       84.64769       95.92878
H         20.80006       85.11214       97.60619
N         25.77536       88.02502       94.03836
C         26.48459       88.25793       92.78620
C         26.26707       87.07042       91.86730
O         25.59593       86.12866       92.25684
C         27.99904       88.43088       93.04306
C         28.31764       89.57103       93.96119
O         27.89716       89.54656       95.23863
O         29.00302       90.50136       93.56792
H         26.18324       87.33634       94.68232
H         26.08304       89.16037       92.27378
H         28.51843       88.60236       92.07581
H         28.41294       87.50133       93.49248
N         26.78349       87.05479       90.60959
C         26.56890       85.94905       89.68494
C         27.15704       84.63242       90.20074
O         26.39348       83.67802       90.25012
C         27.05677       86.32781       88.26775
C         26.86451       85.22713       87.24968
C         25.59257       84.67792       87.00179
C         27.96836       84.75045       86.52100
C         25.43430       83.66835       86.04709
C         27.80337       83.74762       85.56223
C         26.53801       83.20571       85.32620
H         27.31327       87.87778       90.28401
H         25.46945       85.80447       89.58265
H         28.11564       86.63770       88.28166
H         26.47741       87.21562       87.93319
H         24.72291       85.02585       87.54350
H         28.95691       85.16026       86.68759
H         24.45449       83.24692       85.86303
H         28.65769       83.39280       85.00062
H         26.41289       82.42901       84.58311
N         28.46067       84.46015       90.60446
C         28.99869       83.17174       91.04604
C         28.22981       82.54502       92.19606
O         28.33692       81.34614       92.41252
C         30.41221       83.51821       91.53548
C         30.77356       84.69101       90.65598
C         29.47580       85.49070       90.65722
H         29.00561       82.49911       90.16044
H         30.36003       83.92640       92.57321
H         31.12612       82.66699       91.53095
H         31.66832       85.26586       90.97625
H         30.94182       84.30085       89.62633
H         29.34522       86.06445       91.60165
H         29.49743       86.17173       89.79390
N         27.51761       83.33692       93.03821
C         26.81095       82.86164       94.21580
C         25.49306       82.25035       93.78160
O         25.23365       81.09893       94.09990
C         26.62823       84.04220       95.19486
C         28.00930       84.62217       95.59499
C         27.92632       85.86677       96.42060
O         26.85443       86.29963       96.80208
O         29.05283       86.54713       96.69816
H         27.51770       84.35138       92.86095
H         27.42519       82.10799       94.75966
H         26.08000       83.71190       96.10452
H         26.03871       84.83826       94.69674
H         28.57687       84.91187       94.68882
H         28.60512       83.85784       96.13896
N         24.63438       82.96536       93.00007
C         23.38714       82.45378       92.47289
H         22.55311       83.11162       92.79433
H         23.43469       82.46338       91.36226
H         23.17825       81.41740       92.80725
H         24.88957       83.91976       92.72726
Ca        26.83306       88.71525       98.36269
O         24.37708       86.81670       99.14480
H         24.18429       85.97200       99.62214
H         24.98226       86.54526       98.41293
O         25.61157       89.65264      100.72134
H         24.86258       89.10350      100.38303
H         25.83657       89.26823      101.60398

Ca 1.0



