%chk=holoCaM-CaMKII.loop1.water2.frame453.chk
%nprocshared=20
%mem=10GB
%nosave
#b3lyp/svp scf=(tight,noincore,xqc) Test 
#IOP(5/87=12) Density=Current Pop=(MK,readradii) iop(6/33=2) iop(6/42=6)

holoCaM-CaMKII.loop1.water2.frame453 

   0  1 
C         75.13243       49.25277       45.21890
C         76.30582       48.32201       45.30369
O         77.07471       48.44558       46.23834
H         74.50724       49.13839       46.12988
H         75.49228       50.29945       45.14914
H         74.50020       49.03348       44.33266
N         76.47302       47.34041       44.37580
C         77.53038       46.32782       44.38525
C         78.90572       46.92874       44.03302
O         79.34850       46.78426       42.90258
C         77.08325       45.19842       43.41301
C         77.93919       43.97707       43.46971
O         79.09256       44.00571       44.14474
O         77.59391       42.96174       42.89123
H         75.74735       47.26804       43.64488
H         77.57406       45.84806       45.39001
H         77.00905       45.56256       42.36573
H         76.07154       44.87176       43.73610
N         79.62216       47.64361       44.95370
C         80.85794       48.37538       44.65058
C         82.11648       47.52115       44.49009
O         83.12694       48.09212       44.10233
C         81.09798       49.46576       45.72137
C         80.03056       50.56636       45.61009
C         80.23190       51.67694       46.64646
C         79.35047       52.90746       46.36136
N         77.91903       52.60039       46.36237
H         79.22833       47.75048       45.89473
H         80.71604       48.90036       43.67957
H         82.08191       49.95406       45.54739
H         81.11290       49.00928       46.73687
H         79.01688       50.13481       45.73130
H         80.11078       51.00854       44.59292
H         81.28787       52.02302       46.61072
H         80.03024       51.27713       47.66454
H         79.63165       53.33832       45.37406
H         79.56064       53.67512       47.13811
H         77.67831       51.95594       45.57576
H         77.63834       52.17653       47.27552
H         77.38604       53.48868       46.21956
N         82.15225       46.17997       44.73047
C         83.33426       45.34737       44.44545
C         83.05520       44.37075       43.29991
O         83.96092       43.63439       42.93326
C         83.91422       44.65302       45.71751
C         82.96555       43.73779       46.43465
O         81.71413       43.65759       45.98182
O         83.31129       43.12580       47.43205
H         81.29099       45.73378       45.06731
H         84.16863       45.98088       44.07255
H         84.24086       45.43648       46.43462
H         84.81393       44.06884       45.42197
N         81.86984       44.37763       42.61575
C         81.65644       43.61952       41.39421
C         81.58815       42.11965       41.56753
O         81.71993       41.43145       40.56522
H         81.12322       45.02678       42.88507
H         82.47430       43.87566       40.68610
H         80.70463       43.93698       40.91376
N         81.30550       41.53029       42.76563
C         81.18878       40.07843       42.91400
C         79.78009       39.55590       42.60298
O         79.52849       38.38099       42.83241
C         81.74825       39.62689       44.28723
C         80.93327       39.99862       45.49054
O         79.85755       40.54628       45.37061
O         81.37812       39.68523       46.72133
H         81.11899       42.12678       43.58503
H         81.87295       39.58767       42.18660
H         82.76490       40.06123       44.40364
H         81.84352       38.52062       44.29462
N         78.83515       40.34575       42.00742
C         77.51188       39.87897       41.61371
C         76.51226       39.76469       42.75145
O         75.37047       39.43492       42.46684
H         79.08325       41.30174       41.72365
H         77.59854       38.91836       41.05922
H         77.07910       40.62452       40.91121
N         76.84576       40.02673       44.04869
C         75.89675       39.97074       45.16132
C         75.92110       41.27270       45.96140
O         76.75086       42.12903       45.69802
C         76.21416       38.75524       46.06569
C         76.02679       37.42412       45.31969
O         77.50912       38.84326       46.60697
H         77.81355       40.26844       44.26674
H         74.86163       39.84533       44.77421
H         75.49517       38.74090       46.91235
H         78.15996       38.60268       45.89722
H         74.98312       37.33619       44.95013
H         76.71877       37.34968       44.45363
H         76.23173       36.57685       46.00723
N         74.99083       41.49789       46.93840
C         74.91446       42.73187       47.72420
C         74.88740       42.38191       49.21339
O         74.05682       41.57989       49.61552
C         73.65218       43.55385       47.30920
C         73.68039       43.83771       45.78096
C         73.59581       44.87828       48.10086
C         72.47948       44.62975       45.25791
H         74.26191       40.78548       47.09277
H         75.78916       43.38655       47.51562
H         72.73876       42.96251       47.54148
H         73.68528       42.87106       45.23394
H         74.60695       44.39140       45.51988
H         73.56239       44.68468       49.18834
H         74.48270       45.50881       47.87375
H         72.67828       45.45361       47.86766
H         72.45860       45.65773       45.67286
H         72.55718       44.72526       44.15400
H         71.53168       44.10703       45.50455
N         75.72366       43.00569       50.09772
C         75.68078       42.78646       51.54613
C         74.84415       43.85808       52.22303
O         74.36940       44.77302       51.57232
C         77.11021       42.79834       52.17549
C         78.00352       41.64892       51.71455
O         77.74240       44.03978       51.98082
H         76.32242       43.75647       49.74067
H         75.19200       41.81339       51.77110
H         77.02906       42.65531       53.27222
H         78.15094       44.04351       51.07819
H         78.98063       41.71266       52.24268
H         77.53114       40.67558       51.96097
H         78.18411       41.71671       50.62892
N         74.64547       43.79689       53.56784
C         73.95720       44.82161       54.34623
C         74.64583       46.16922       54.17273
O         73.97934       47.14079       53.84416
C         73.92667       44.42022       55.84866
C         73.04394       43.18198       56.07689
O         75.23229       44.16995       56.30876
H         75.03826       42.98858       54.06959
H         72.90287       44.92149       54.00139
H         73.48586       45.26512       56.42562
H         75.17980       44.02308       57.28857
H         73.42228       42.29872       55.52218
H         73.02276       42.92694       57.15764
H         72.00343       43.39103       55.75055
N         75.98838       46.28847       54.36445
C         76.72379       47.54682       54.25879
C         76.57806       48.17986       52.88943
O         76.21706       49.34654       52.81994
C         78.21710       47.32755       54.58000
C         78.40673       46.94655       56.05747
C         79.88927       46.81644       56.42302
C         80.10721       46.51600       57.91740
N         79.62572       47.59913       58.78058
H         76.51451       45.43231       54.59260
H         76.32808       48.27052       55.00710
H         78.75850       48.28446       54.40769
H         78.65341       46.55365       53.90919
H         77.89349       45.98976       56.29206
H         77.94688       47.75374       56.66223
H         80.42436       47.75628       56.16604
H         80.33261       45.98899       55.82637
H         81.19964       46.38913       58.08280
H         79.60530       45.56279       58.19563
H         78.58359       47.66338       58.75516
H         79.90638       47.39974       59.76731
H         80.04719       48.51096       58.48864
N         76.82415       47.46686       51.75723
C         76.70202       48.02335       50.41063
C         75.34240       48.67387       50.21228
O         75.30395       49.84749       49.86627
C         76.98100       46.93398       49.35122
C         78.47328       46.54493       49.34993
C         78.80022       45.50533       48.31650
O         79.61032       45.74993       47.43837
O         78.24289       44.28407       48.37540
H         77.07894       46.47579       51.86614
H         77.46024       48.82712       50.27085
H         76.73461       47.32971       48.34942
H         76.32811       46.05502       49.53465
H         78.77947       46.15909       50.34169
H         79.07498       47.45689       49.13958
N         74.18769       48.00786       50.47218
C         72.89672       48.65569       50.37752
H         72.09370       47.95333       50.68475
H         72.86721       49.53687       51.05639
H         72.71089       48.98897       49.33521
H         74.22543       47.03286       50.78820
Ca        79.60469       43.01514       46.07801
O         78.49548       40.97398       48.24001
H         77.54963       40.76409       48.44490
H         79.01504       40.37203       48.83042
O         80.97205       42.42085       49.49420
H         80.93550       42.66557       48.53621
H         81.40753       41.53167       49.50439

Ca 1.0



