%chk=holoCaM-CaMKII.loop2.water2.frame64.chk
%nprocshared=20
%mem=10GB
%nosave
#b3lyp/svp scf=(tight,noincore,xqc) Test 
#IOP(5/87=12) Density=Current Pop=(MK,readradii) iop(6/33=2) iop(6/42=6)

holoCaM-CaMKII.loop2.water2.frame64 

   -2  1 
C         73.48492       67.79582       90.10574
C         72.14433       67.91659       90.76810
O         71.16755       67.43809       90.20982
H         74.28916       68.23372       90.73369
H         73.71538       66.71608       89.96520
H         73.47509       68.29648       89.11808
N         72.03153       68.47745       92.00485
C         70.80743       68.36774       92.78289
C         69.68426       69.27049       92.29062
O         69.93417       70.43964       92.03297
C         71.06673       68.64514       94.28375
C         70.08792       67.88750       95.15108
O         70.13740       68.00490       96.36221
O         69.30911       66.94359       94.56699
H         72.88388       68.83479       92.46316
H         70.52434       67.30145       92.69049
H         71.06877       69.73992       94.48393
H         72.06195       68.24534       94.57559
N         68.39874       68.81135       92.24652
C         67.24752       69.61895       91.85913
C         66.23401       69.80589       92.99195
O         65.27760       70.53710       92.77088
C         66.55467       68.94491       90.66846
H         68.22180       67.84161       92.51823
H         67.58028       70.63269       91.54785
H         66.18466       67.93685       90.96104
H         65.69005       69.54845       90.31860
H         67.26683       68.82753       89.82500
N         66.33685       69.17619       94.20483
C         65.29450       69.28051       95.23246
C         65.81586       69.26987       96.67481
O         64.98892       69.35751       97.57305
C         64.21701       68.19141       95.00632
C         64.70465       66.77287       95.10713
O         63.92041       65.85215       94.94674
O         65.99165       66.49909       95.36307
H         67.09361       68.49714       94.34324
H         64.76507       70.25310       95.11962
H         63.78035       68.32983       93.99393
H         63.40042       68.33144       95.74789
N         67.14307       69.19965       96.99538
C         67.62306       69.24300       98.37321
C         67.27071       68.02707       99.22320
O         67.54841       68.07357      100.41339
H         67.85053       69.18959       96.25218
H         67.20946       70.15649       98.85504
H         68.73021       69.33951       98.37762
N         66.66315       66.91453       98.71279
C         66.23059       65.77938       99.53414
C         67.36359       64.91752      100.13380
O         67.04517       63.92297      100.77109
C         65.22385       64.89349       98.75520
C         65.78534       64.07422       97.62505
N         64.99334       63.16763       97.01007
O         66.94785       64.19496       97.27914
H         66.42288       66.90444       97.71628
H         65.63052       66.19044      100.37609
H         64.39345       65.52247       98.36366
H         64.78379       64.17576       99.47990
H         64.00987       63.04971       97.29140
H         65.36716       62.55541       96.27572
N         68.68645       65.23602      100.01612
C         69.76585       64.47959      100.64791
C         70.24853       63.24354       99.89248
O         71.19827       62.63499      100.36554
H         68.94782       66.12193       99.57379
H         69.48362       64.22195      101.69281
H         70.65013       65.14929      100.71254
N         69.67938       62.80934       98.73172
C         70.14073       61.64281       97.96442
C         70.41993       62.01774       96.50908
O         70.24002       63.17300       96.15425
C         69.06064       60.53292       98.03935
C         68.96088       59.97203       99.45899
O         67.80203       61.02347       97.65048
H         68.85945       63.31172       98.37722
H         71.08853       61.23310       98.37866
H         69.33699       59.66641       97.39962
H         67.84053       61.18904       96.67300
H         68.66747       60.76043      100.18288
H         68.20592       59.15869       99.49024
H         69.94152       59.54679       99.76639
N         70.80731       61.07695       95.58919
C         70.93159       61.38054       94.16414
C         69.72146       60.79059       93.46804
O         69.59691       59.57327       93.41267
C         72.23851       60.81223       93.52201
C         73.50862       61.21579       94.30636
C         72.32866       61.26219       92.04439
C         74.78534       60.57440       93.74283
H         70.91395       60.09517       95.88543
H         70.92707       62.48308       94.01702
H         72.18159       59.70036       93.55072
H         73.40507       60.85834       95.35317
H         73.62455       62.32039       94.32102
H         71.43132       60.95099       91.47763
H         72.41863       62.36795       91.97838
H         73.18650       60.79758       91.52067
H         75.65020       60.82477       94.39070
H         74.68114       59.46798       93.70595
H         75.01839       60.94952       92.72566
N         68.76445       61.60199       92.94063
C         67.59380       61.08146       92.24675
C         67.97698       60.53385       90.87163
O         69.12080       60.69151       90.47513
C         66.51330       62.17238       92.12924
C         65.94773       62.55885       93.48061
O         64.85698       62.10302       93.78409
O         66.53428       63.41483       94.35986
H         68.85420       62.61726       93.07417
H         67.16288       60.24933       92.84869
H         65.67853       61.71971       91.55103
H         66.84809       63.06188       91.56303
N         67.08704       59.83594       90.09854
C         67.46882       59.27927       88.80018
C         67.70773       60.38209       87.76789
O         68.79485       60.37948       87.20651
C         66.48618       58.19891       88.28254
C         67.02739       57.53121       87.03299
C         66.37493       57.68417       85.79667
C         68.19932       56.75235       87.09374
C         66.89119       57.07762       84.64558
C         68.70729       56.14385       85.94242
C         68.05548       56.30822       84.71868
H         66.14486       59.64237       90.46988
H         68.42115       58.72360       88.95560
H         65.49010       58.61539       88.07940
H         66.34194       57.41628       89.05825
H         65.47520       58.28128       85.71941
H         68.71934       56.61045       88.03253
H         66.38990       57.20519       83.69489
H         69.60778       55.54539       85.99943
H         68.45306       55.83898       83.82766
N         66.79619       61.37212       87.45700
C         67.05464       62.43379       86.48007
C         68.27896       63.29251       86.76533
O         68.61544       64.13142       85.94124
C         65.81636       63.33497       86.57382
C         64.74217       62.35349       86.96129
C         65.46188       61.50805       88.00870
H         67.14590       61.94420       85.48500
H         65.92230       64.02183       87.44769
H         65.61705       63.94835       85.66922
H         63.78960       62.80637       87.30877
H         64.53488       61.71600       86.07048
H         65.53263       62.02313       88.99123
H         64.88967       60.57638       88.10389
N         68.97374       63.15659       87.92556
C         70.14632       63.93052       88.28115
C         71.36441       63.13921       87.86671
O         72.18752       63.65543       87.12438
C         70.12173       64.21197       89.79511
C         68.82935       64.95421       90.18379
C         68.71343       65.16535       91.65514
O         67.67182       65.60716       92.11010
O         69.72266       64.83793       92.48369
H         68.65733       62.47778       88.62651
H         70.14961       64.91455       87.75941
H         71.01277       64.80780       90.08621
H         70.15537       63.24860       90.35231
H         67.95164       64.34585       89.88260
H         68.76684       65.93625       89.66780
N         71.50521       61.84148       88.25456
C         72.59242       61.00648       87.80150
H         73.56026       61.41463       88.15566
H         72.46325       59.97652       88.19905
H         72.58577       60.95333       86.69128
H         70.79252       61.41057       88.85571
Ca        68.14550       64.99113       94.80220
O         70.15526       65.51630       97.38310
H         70.68728       66.07542       98.00290
H         69.25385       65.92761       97.36020
O         71.69066       65.19733       94.67839
H         71.97822       65.52039       93.78836
H         72.43910       65.42904       95.28248

Ca 1.0



