%chk=holoCaM-CaMKII.loop3.water1.frame384.chk
%nprocshared=20
%mem=10GB
%nosave
#b3lyp/svp scf=(tight,noincore,xqc) Test 
#IOP(5/87=12) Density=Current Pop=(MK,readradii) iop(6/33=2) iop(6/42=6)

holoCaM-CaMKII.loop3.water1.frame384 

   0  1 
C         63.87426       -6.04280       65.68659
C         64.50981       -4.81854       66.28554
O         63.94245       -4.24223       67.20240
H         62.87111       -5.78878       65.28566
H         64.48760       -6.45344       64.85590
H         63.76926       -6.82983       66.46250
N         65.71037       -4.37399       65.82219
C         66.40035       -3.20613       66.35825
C         65.60085       -1.93648       66.07905
O         65.26397       -1.67157       64.93362
C         67.82431       -3.13414       65.76416
C         68.65459       -2.01123       66.32035
O         68.12578       -1.14829       67.20194
O         69.79428       -1.84297       65.91999
H         66.16758       -4.91146       65.06915
H         66.52552       -3.34128       67.45475
H         67.76087       -3.01906       64.66085
H         68.34884       -4.08694       65.99418
N         65.26610       -1.10886       67.10978
C         64.42763        0.08082       66.97761
C         65.04773        1.10147       66.01957
O         64.39954        1.43808       65.03879
C         64.15380        0.66185       68.38990
C         62.88282        1.51561       68.51422
C         62.65210        1.88162       69.99547
C         61.27159        2.50633       70.23647
N         61.08026        2.81187       71.65622
H         65.59558       -1.37078       68.05084
H         63.44737       -0.26253       66.57641
H         65.03494        1.21214       68.76434
H         63.97334       -0.20137       69.06841
H         62.02555        0.89670       68.16835
H         62.93999        2.43129       67.88763
H         63.45365        2.57380       70.33475
H         62.70286        0.95798       70.61475
H         60.48692        1.78380       69.91636
H         61.16136        3.43581       69.63757
H         60.11822        3.19516       71.80079
H         61.18303        1.94432       72.23274
H         61.77985        3.52367       71.96838
N         66.30870        1.60405       66.22001
C         66.96019        2.55974       65.31653
C         68.19943        1.98218       64.64729
O         69.10155        1.57316       65.33788
C         67.28055        3.89611       66.02915
C         68.30277        4.03225       67.15794
O         69.04153        3.04289       67.72216
O         68.49563        5.16439       67.57158
H         66.82357        1.28828       67.04714
H         66.25438        2.83404       64.50197
H         66.31845        4.30397       66.40709
H         67.63395        4.58493       65.22804
N         68.32718        1.93701       63.29213
C         69.50182        1.41338       62.59700
C         70.76002        2.24103       62.82159
O         71.11657        2.99999       61.93146
H         67.54950        2.28203       62.70949
H         69.27663        1.44754       61.50763
H         69.68331        0.34626       62.85021
N         71.52394        2.09635       63.94731
C         72.75325        2.84995       64.19822
C         73.98032        1.94880       64.26154
O         75.07457        2.48008       64.40036
C         72.64060        3.67064       65.50622
C         72.58130        2.81299       66.75293
N         73.56377        2.87268       67.68058
O         71.64135        2.05669       66.92996
H         71.24972        1.39230       64.63959
H         72.92190        3.57267       63.37106
H         71.74653        4.32931       65.46699
H         73.53266        4.33194       65.57180
H         74.37607        3.49516       67.56330
H         73.51275        2.28146       68.52053
N         73.88774        0.58870       64.19400
C         75.03375       -0.29646       64.28232
C         74.97242       -1.21132       65.48905
O         75.83716       -2.06685       65.58594
H         72.97081        0.13401       64.08083
H         75.99171        0.26316       64.32912
H         75.05005       -0.92023       63.36243
N         73.98158       -1.12125       66.43194
C         73.87798       -2.06472       67.54891
C         72.52375       -1.99129       68.23779
O         71.74883       -1.08405       67.97794
C         75.05504       -1.90036       68.55207
C         75.13712       -0.55113       69.24551
C         74.18860       -0.16614       70.21264
C         76.20217        0.32304       68.95873
C         74.30425        1.06219       70.87350
C         76.31049        1.55417       69.61431
C         75.36548        1.92792       70.57407
O         75.48750        3.11652       71.19974
H         73.25339       -0.40653       66.31500
H         73.91749       -3.08618       67.11095
H         75.99947       -2.07755       68.00024
H         75.01458       -2.69032       69.33204
H         73.36818       -0.81734       70.47621
H         76.95226        0.05473       68.22554
H         73.56986        1.33942       71.61954
H         77.13382        2.21722       69.37883
H         74.85525        3.41461       71.86935
N         72.17159       -2.96794       69.12564
C         70.89001       -2.98390       69.82757
C         71.13957       -2.87338       71.32474
O         72.24281       -3.14950       71.77316
C         70.04559       -4.23020       69.39939
C         68.58633       -4.13870       69.91756
C         70.71498       -5.55628       69.81463
C         67.66578       -5.24166       69.38670
H         72.84435       -3.72481       69.30858
H         70.31479       -2.08369       69.52988
H         69.99106       -4.20802       68.28723
H         68.15929       -3.16859       69.58071
H         68.55890       -4.17794       71.02484
H         70.77045       -5.63948       70.92028
H         70.15572       -6.42724       69.41898
H         71.73602       -5.64096       69.39433
H         67.96831       -6.23945       69.76202
H         66.62869       -5.05455       69.73841
H         67.66865       -5.25434       68.27712
N         70.16715       -2.39200       72.14784
C         70.34982       -2.18668       73.57906
C         69.32588       -2.98893       74.35698
O         68.48641       -3.63821       73.75790
C         70.20229       -0.68640       73.88506
O         71.14927        0.04795       73.15164
H         69.26400       -2.12061       71.74179
H         71.36032       -2.51564       73.90308
H         70.31609       -0.49908       74.97835
H         69.18774       -0.33113       73.60247
H         71.78018        0.45929       73.79794
N         69.34870       -2.99465       75.71787
C         68.34306       -3.67070       76.53227
C         66.98926       -3.00858       76.35767
O         66.01174       -3.69998       76.10889
C         68.74294       -3.62214       78.00839
H         70.10988       -2.48680       76.19338
H         68.28594       -4.74716       76.25316
H         68.82974       -2.57509       78.36725
H         67.98530       -4.15564       78.62204
H         69.72062       -4.13232       78.14353
N         66.87945       -1.65117       76.44090
C         65.63249       -0.91052       76.26428
C         64.93571       -1.30364       74.97978
O         63.75773       -1.63070       75.00398
C         65.93117        0.59871       76.22661
H         67.74586       -1.11127       76.59636
H         64.95159       -1.11095       77.11984
H         66.61434        0.84603       75.38308
H         64.99290        1.17914       76.09620
H         66.41706        0.92127       77.17116
N         65.62902       -1.29764       73.81550
C         65.04877       -1.61444       72.51655
C         64.51120       -3.03571       72.49985
O         63.35969       -3.22671       72.13520
C         66.09114       -1.37221       71.40546
C         66.53974        0.10742       71.42251
C         67.51849        0.43386       70.35206
O         68.68747       -0.22360       70.27861
O         67.29118        1.35453       69.58801
H         66.62938       -1.05983       73.87320
H         64.20597       -0.91738       72.30683
H         65.63132       -1.60549       70.42182
H         66.96336       -2.04338       71.54921
H         67.04445        0.36339       72.37233
H         65.65024        0.76658       71.31900
N         65.27463       -4.07257       72.94123
C         64.81729       -5.44554       73.01397
H         63.79453       -5.57503       72.60355
H         65.51394       -6.09647       72.44608
H         64.81215       -5.77307       74.07620
H         66.21727       -3.87689       73.28787
Ca        69.12882        0.77829       67.70250
O         71.14292        1.76671       69.97409
H         70.80879        1.33290       70.79789
H         71.52053        2.62759       70.28433

Ca 1.0



