%chk=holoCaM-CaMKII.loop3.water2.frame368.chk
%nprocshared=20
%mem=10GB
%nosave
#b3lyp/svp scf=(tight,noincore,xqc) Test 
#IOP(5/87=12) Density=Current Pop=(MK,readradii) iop(6/33=2) iop(6/42=6)

holoCaM-CaMKII.loop3.water2.frame368 

   0  1 
C         51.74816       69.94570       23.55948
C         51.84923       70.04308       22.06902
O         52.24990       71.08096       21.56239
H         50.69619       69.73388       23.84351
H         52.39858       69.12167       23.92084
H         52.06776       70.89461       24.03982
N         51.50799       68.97261       21.29969
C         51.58601       68.97660       19.84316
C         50.57788       69.99525       19.30273
O         49.38333       69.73454       19.34191
C         51.29654       67.54024       19.34653
C         51.40938       67.22404       17.88249
O         50.96928       66.15153       17.50986
O         52.00521       68.02006       16.97378
H         51.20636       68.11278       21.78532
H         52.62588       69.25254       19.58606
H         50.25367       67.30200       19.65068
H         51.96547       66.82425       19.87321
N         50.98992       71.23949       18.92596
C         50.07021       72.33161       18.60315
C         49.35102       72.11468       17.28027
O         48.21529       72.55291       17.16305
C         50.81228       73.69323       18.60119
C         49.87026       74.91047       18.57168
C         50.66432       76.22695       18.57122
C         49.72428       77.44190       18.59864
N         50.47841       78.69449       18.53827
H         51.99083       71.44588       18.99927
H         49.32690       72.39290       19.43004
H         51.49706       73.74720       17.73407
H         51.40985       73.76733       19.53741
H         49.21368       74.87791       19.46901
H         49.23629       74.88241       17.66089
H         51.29347       76.26888       17.65513
H         51.33021       76.26764       19.46159
H         49.12167       77.42050       19.53435
H         49.02801       77.39698       17.73218
H         51.13752       78.76232       19.34741
H         51.01397       78.74673       17.64122
H         49.81078       79.49861       18.57748
N         49.95622       71.47663       16.23266
C         49.32312       71.31242       14.92122
C         48.95412       69.86396       14.61375
O         48.39901       69.62125       13.55080
C         50.20058       71.94018       13.81334
C         51.53504       71.27873       13.57772
O         51.93279       70.21064       14.29486
O         52.26559       71.71441       12.70283
H         50.90356       71.09615       16.37108
H         48.36030       71.86758       14.89722
H         50.37600       73.00943       14.06369
H         49.63715       71.90649       12.85518
N         49.16383       68.85961       15.51089
C         48.71068       67.49400       15.30039
C         49.41541       66.79973       14.15788
O         48.74967       66.30504       13.25991
H         49.60350       69.06895       16.41752
H         47.60962       67.48832       15.14537
H         48.91378       66.90931       16.22029
N         50.77232       66.69934       14.15378
C         51.54728       65.96597       13.16023
C         52.41419       64.89079       13.81613
O         53.31297       64.37788       13.16329
C         52.37000       66.94973       12.30163
C         53.42846       67.75376       13.01621
N         54.14565       68.66232       12.31869
O         53.64861       67.59897       14.20772
H         51.28932       67.16532       14.90441
H         50.87737       65.44667       12.43965
H         51.65606       67.65885       11.82833
H         52.86813       66.38053       11.48616
H         53.97446       68.80545       11.31225
H         54.87227       69.22369       12.78352
N         52.14248       64.42913       15.07283
C         52.87103       63.33230       15.68543
C         54.25241       63.68235       16.20321
O         54.94010       62.74875       16.59457
H         51.31236       64.77471       15.56840
H         52.93624       62.49860       14.95293
H         52.29689       62.95081       16.55871
N         54.71631       64.96569       16.32736
C         56.03513       65.24225       16.91609
C         56.16345       66.65156       17.48994
O         55.27906       67.46794       17.29524
C         57.15410       64.86765       15.91659
C         57.09605       65.67297       14.63763
C         57.46726       67.02639       14.62856
C         56.68334       65.07109       13.43576
C         57.42485       67.76700       13.44427
C         56.63409       65.81428       12.25222
C         57.00680       67.16202       12.25064
O         56.96030       67.86342       11.09996
H         54.08935       65.74470       16.08106
H         56.13030       64.59603       17.81804
H         57.03302       63.79146       15.67243
H         58.16086       64.96960       16.37453
H         57.80585       67.50274       15.53571
H         56.39045       64.02881       13.41408
H         57.71978       68.80887       13.45550
H         56.30745       65.34106       11.33474
H         57.20907       68.79785       11.05663
N         57.20706       66.95336       18.32212
C         57.30477       68.18421       19.11407
C         58.66486       68.84993       18.90880
O         59.67999       68.18402       19.06144
C         57.08588       67.83026       20.62030
C         55.68413       67.18278       20.81545
C         57.23284       69.08594       21.50777
C         55.41199       66.68742       22.23698
H         57.91073       66.21988       18.50170
H         56.50202       68.90353       18.83797
H         57.86327       67.09472       20.92709
H         55.59506       66.29110       20.16068
H         54.88913       67.90471       20.52430
H         58.23976       69.53725       21.39545
H         56.46847       69.84687       21.24078
H         57.13388       68.83410       22.58199
H         56.17993       65.94313       22.53683
H         55.39431       67.51994       22.96751
H         54.41509       66.19819       22.26777
N         58.75126       70.18847       18.63708
C         60.01289       70.91751       18.47888
C         60.19278       71.95153       19.58961
O         59.34496       72.04618       20.46078
C         60.03598       71.58778       17.09509
O         59.92111       70.62675       16.08072
H         57.87772       70.73302       18.56679
H         60.87978       70.22425       18.54478
H         60.96564       72.17920       16.93969
H         59.18730       72.29983       17.00690
H         60.81219       70.19708       15.99375
N         61.31753       72.72583       19.64758
C         61.60332       73.67599       20.72598
C         60.64515       74.85387       20.75725
O         60.02680       75.08072       21.78795
C         63.03081       74.22071       20.59277
H         62.03580       72.58781       18.92061
H         61.55622       73.13657       21.69891
H         63.25289       74.91417       21.43333
H         63.75964       73.38458       20.62943
H         63.16459       74.76816       19.63553
N         60.50139       75.66911       19.67159
C         59.65686       76.86406       19.65961
C         58.25189       76.52818       20.08535
O         57.71113       77.17908       20.96876
C         59.62652       77.48003       18.25293
H         61.01209       75.42121       18.81007
H         60.07104       77.62606       20.35648
H         59.21716       76.75926       17.51175
H         58.98912       78.39110       18.24558
H         60.65111       77.76822       17.93818
N         57.62197       75.47609       19.51073
C         56.27413       75.05864       19.84691
C         56.13890       74.75917       21.33337
O         55.31099       75.37508       21.99031
C         55.93548       73.83783       18.98413
C         54.48026       73.43837       19.09983
C         54.21821       72.32620       18.14970
O         54.76829       71.12615       18.35932
O         53.45282       72.47669       17.21248
H         58.14205       74.94156       18.79588
H         55.57571       75.88291       19.57681
H         56.60139       72.98179       19.23849
H         56.11717       74.11091       17.91944
H         53.84283       74.30952       18.83827
H         54.22923       73.10677       20.13192
N         56.93794       73.83838       21.93313
C         56.86615       73.53893       23.34621
H         57.07207       74.45515       23.93963
H         55.86073       73.14417       23.60217
H         57.62741       72.77219       23.60771
H         57.63371       73.34344       21.36918
Ca        53.56864       69.55079       17.36934
O         55.60690       71.72476       13.94392
H         54.68059       71.65401       13.60593
H         56.16578       71.34230       13.22181
O         56.60940       70.14893       16.14465
H         57.44632       69.63677       16.26045
H         56.88759       71.09333       16.24694

Ca 1.0



