%chk=holoCaM.loop4.water3.frame216.chk
%nprocshared=20
%mem=10GB
%nosave
#b3lyp/svp scf=(tight,noincore,xqc) Test 
#IOP(5/87=12) Density=Current Pop=(MK,readradii) iop(6/33=2) iop(6/42=6)

holoCaM.loop4.water3.frame216 

   -3  1 
C         36.74027       61.59314      -19.34944
C         37.07196       60.27768      -18.72816
O         36.19518       59.42872      -18.67558
H         35.92352       62.08013      -18.77849
H         37.62549       62.26001      -19.37303
H         36.40216       61.41145      -20.39185
N         38.31978       60.02824      -18.23591
C         38.69505       58.72775      -17.70671
C         40.05763       58.79909      -17.01533
O         41.02233       59.21615      -17.64060
C         38.69835       57.67680      -18.85785
C         38.80460       56.29120      -18.32302
O         38.75020       55.31691      -19.05397
O         38.87405       56.15948      -17.00022
H         39.01786       60.78674      -18.24271
H         37.93164       58.44096      -16.94456
H         39.51261       57.88681      -19.57995
H         37.73099       57.70007      -19.39742
N         40.19776       58.39175      -15.71694
C         41.43254       58.50124      -14.94686
C         41.97599       57.09935      -14.68503
O         43.08377       56.80473      -15.11279
C         41.16284       59.29542      -13.62093
C         40.44105       60.63884      -13.92067
C         42.47087       59.52326      -12.83686
C         40.05277       61.43583      -12.67096
H         39.38358       57.98772      -15.23833
H         42.19586       59.06342      -15.53160
H         40.47858       58.69852      -12.97898
H         39.49027       60.41767      -14.44945
H         41.06371       61.27702      -14.58319
H         42.95998       58.55737      -12.59488
H         43.17622       60.14895      -13.42407
H         42.27392       60.02566      -11.86712
H         39.44771       62.31784      -12.97112
H         39.44290       60.81179      -11.98289
H         40.94792       61.81264      -12.13646
N         41.24828       56.18551      -13.97745
C         41.72878       54.83817      -13.65957
C         41.75794       53.87551      -14.85509
O         42.23324       52.76209      -14.67870
C         40.93716       54.25026      -12.45658
C         39.44834       54.09390      -12.62826
O         38.84233       54.44375      -13.76605
O         38.77627       53.65949      -11.70856
H         40.34513       56.49172      -13.59081
H         42.77591       54.92930      -13.29504
H         41.09622       54.92482      -11.58830
H         41.35513       53.25400      -12.19924
N         41.27210       54.21206      -16.08585
C         41.29538       53.32505      -17.24485
C         40.64203       51.98977      -16.95785
O         41.29632       50.97366      -17.14528
H         40.86774       55.14313      -16.22235
H         42.34867       53.15257      -17.56068
H         40.77439       53.82028      -18.09281
N         39.36673       51.91320      -16.48034
C         38.73146       50.64893      -16.09914
C         37.54773       50.28141      -16.98420
O         37.38755       49.10142      -17.26419
C         38.36580       50.60087      -14.59294
C         37.36582       51.60357      -14.08734
O         36.92817       52.48038      -14.80288
O         36.95410       51.53813      -12.80782
H         38.85243       52.79309      -16.35063
H         39.45755       49.81481      -16.21900
H         39.29083       50.72715      -13.99055
H         37.95177       49.59187      -14.38082
N         36.68920       51.21938      -17.47244
C         35.55056       50.90853      -18.32914
C         34.22460       51.40054      -17.76992
O         33.22525       51.24639      -18.45652
H         36.86550       52.20513      -17.25596
H         35.46525       49.81648      -18.51605
H         35.71581       51.40588      -19.30878
N         34.12859       52.00132      -16.54813
C         32.89301       52.53266      -15.97839
C         33.05359       54.02026      -15.70284
O         34.12392       54.55255      -15.96566
C         32.57840       51.80071      -14.65817
C         32.43564       50.28329      -14.84664
C         31.97282       49.58177      -13.59089
N         31.78243       48.24341      -13.60244
O         31.75392       50.21120      -12.56506
H         34.96762       52.09734      -15.97354
H         32.04067       52.39459      -16.67817
H         31.62019       52.19308      -14.25787
H         33.38032       51.99777      -13.91077
H         33.41430       49.85536      -15.15737
H         31.68901       50.08543      -15.64440
H         31.95897       47.69574      -14.45718
H         31.45233       47.75476      -12.75702
N         32.04605       54.75383      -15.13409
C         32.22310       56.15489      -14.76694
C         32.16356       56.26429      -13.25468
O         31.11038       56.05063      -12.66931
C         31.17380       57.08603      -15.43389
C         31.54443       58.56319      -15.19567
C         31.05826       56.83254      -16.94249
H         31.14858       54.29978      -14.90876
H         33.22172       56.49963      -15.10971
H         30.17222       56.88647      -14.99170
H         30.77960       59.23456      -15.63950
H         31.60908       58.79152      -14.11304
H         32.52842       58.79600      -15.66038
H         30.29772       57.51375      -17.38238
H         32.03127       56.99800      -17.45058
H         30.72015       55.79203      -17.13330
N         33.28953       56.56983      -12.55731
C         33.33867       56.72636      -11.10947
C         32.53668       57.94543      -10.67792
O         32.08065       58.71469      -11.50385
C         34.83587       56.84093      -10.68971
C         35.15634       57.11139       -9.23917
N         34.75755       56.27432       -8.25475
O         35.81590       58.09930       -8.95401
H         34.16204       56.67241      -13.08572
H         32.90153       55.81949      -10.63611
H         35.29621       57.65367      -11.28605
H         35.33914       55.89298      -10.96085
H         34.20293       55.43380       -8.46737
H         34.98804       56.48531       -7.27163
N         32.32622       58.15407       -9.35856
C         31.69002       59.31887       -8.75207
C         32.47003       60.59271       -9.07779
O         31.89036       61.52495       -9.61606
C         31.62655       59.01660       -7.23416
C         31.15328       60.09645       -6.30603
C         29.89210       60.69325       -6.44532
C         31.97947       60.46799       -5.23102
C         29.46771       61.65218       -5.51691
C         31.55228       61.41499       -4.30500
C         30.29339       62.01169       -4.44294
O         29.86766       62.92291       -3.54612
H         32.65177       57.40982       -8.73098
H         30.65061       59.43210       -9.13313
H         32.64006       58.69698       -6.90241
H         30.95393       58.13971       -7.10294
H         29.23717       60.41088       -7.26001
H         32.95078       60.00718       -5.09303
H         28.49209       62.10771       -5.62471
H         32.19926       61.67379       -3.47629
H         30.41000       63.18406       -2.78754
N         33.79368       60.69147       -8.78277
C         34.62056       61.87430       -9.05043
C         34.69950       62.19638      -10.53983
O         34.71085       63.36740      -10.89256
C         36.03976       61.66881       -8.47292
C         36.00054       61.53012       -6.93659
C         37.34452       61.17142       -6.37658
O         37.49682       60.02117       -5.69115
O         38.29976       61.91517       -6.52834
H         34.22923       59.87348       -8.33836
H         34.18491       62.75754       -8.53277
H         36.68449       62.54126       -8.72538
H         36.49100       60.76171       -8.93132
H         35.29338       60.73278       -6.63212
H         35.64903       62.48345       -6.48464
N         34.75925       61.20486      -11.46867
C         34.79002       61.43937      -12.91469
C         33.49392       62.08481      -13.38000
O         33.53583       63.03143      -14.15342
C         35.00564       60.10456      -13.66052
C         36.38145       59.50092      -13.30717
C         36.60139       58.13980      -13.89529
O         37.61974       57.52667      -13.62628
O         35.67777       57.56502      -14.68047
H         34.75104       60.23230      -11.12710
H         35.64767       62.09577      -13.18759
H         34.96917       60.27458      -14.76126
H         34.18977       59.39865      -13.38962
H         36.48107       59.39349      -12.21068
H         37.18484       60.18323      -13.65642
N         32.29899       61.62204      -12.92626
C         31.02202       62.15582      -13.34056
H         30.20819       61.64495      -12.77968
H         30.96844       63.24330      -13.12605
H         30.87036       61.97101      -14.42424
H         32.29515       60.87172      -12.23334
Ca        37.71474       54.96066      -15.59105
O         36.00881       54.31721      -18.11024
H         35.20921       54.32251      -18.69135
H         36.73573       54.00022      -18.69846
O         35.53342       56.89969      -17.34653
H         34.93809       56.70825      -18.11194
H         35.24866       57.79583      -17.04428
O         35.66216       54.55215      -13.19951
H         36.35393       54.47667      -12.49651
H         35.14426       53.71233      -13.12721

Ca 1.0



