%chk=holoCaM-CaMKII.loop4.water2.frame208.chk
%nprocshared=20
%mem=10GB
%nosave
#b3lyp/svp scf=(tight,noincore,xqc) Test 
#IOP(5/87=12) Density=Current Pop=(MK,readradii) iop(6/33=2) iop(6/42=6)

holoCaM-CaMKII.loop4.water2.frame208 

   -3  1 
C         43.01227       54.80904       20.48040
C         43.87122       54.61629       19.26531
O         43.36480       54.29690       18.20133
H         41.95339       54.57012       20.25579
H         43.36890       54.10895       21.26799
H         43.08826       55.84639       20.87001
N         45.21404       54.75020       19.38465
C         46.17501       54.41931       18.33802
C         46.08783       52.91524       18.02889
O         46.11483       52.12215       18.95905
C         47.56695       54.79548       18.88305
C         48.71819       54.55265       17.98060
O         49.84130       54.70846       18.41620
O         48.56165       54.09853       16.73853
H         45.57457       55.05174       20.30556
H         45.98477       55.03283       17.42551
H         47.74923       54.21366       19.80822
H         47.58319       55.88058       19.12969
N         46.00321       52.46167       16.74205
C         45.87528       51.05330       16.34527
C         47.14602       50.53584       15.65688
O         47.34716       49.32947       15.63652
C         44.67391       50.86960       15.35006
C         43.36368       51.56955       15.78809
C         44.40731       49.38001       15.04137
C         42.71287       50.97890       17.03411
H         46.04218       53.16098       16.00744
H         45.71040       50.43951       17.25733
H         44.95265       51.37118       14.39376
H         42.62707       51.50306       14.95489
H         43.55915       52.65064       15.94941
H         43.53166       49.26588       14.36901
H         45.26389       48.90540       14.52544
H         44.21714       48.81973       15.98134
H         43.41242       51.00974       17.89219
H         41.80565       51.56766       17.28367
H         42.39309       49.93290       16.84525
N         48.00800       51.37602       15.01433
C         49.16252       50.93043       14.23314
C         50.48988       51.34699       14.86114
O         51.52655       51.11654       14.25393
C         49.01837       51.34359       12.74346
C         48.90339       52.81109       12.43167
O         48.76557       53.72367       13.39978
O         48.87094       53.17400       11.26820
H         47.82867       52.38091       15.05705
H         49.21108       49.82001       14.20925
H         48.10756       50.85588       12.33125
H         49.89357       50.94499       12.18786
N         50.54513       51.83041       16.13355
C         51.77933       51.99998       16.87859
C         52.70717       53.05232       16.33334
O         53.86206       52.74835       16.07225
H         49.67537       51.97176       16.66164
H         52.30412       51.02237       16.93669
H         51.52123       52.30274       17.91731
N         52.28413       54.33539       16.21083
C         53.16422       55.45779       15.91040
C         53.13043       56.48862       17.04214
O         53.72688       57.54575       16.88880
C         52.81841       56.05104       14.53096
C         51.37273       56.37045       14.32806
O         50.76370       55.84148       13.41248
O         50.74667       57.25323       15.12050
H         51.29088       54.54192       16.38966
H         54.22558       55.13585       15.83034
H         53.10607       55.30383       13.75937
H         53.42253       56.96599       14.35576
N         52.52332       56.22190       18.23934
C         52.49751       57.15134       19.35512
C         51.42460       58.20665       19.22670
O         51.33807       59.04074       20.11729
H         52.12482       55.29410       18.41415
H         53.49969       57.61471       19.48159
H         52.26784       56.58792       20.28519
N         50.57278       58.24698       18.16170
C         49.54824       59.26751       18.01046
C         48.22720       58.70325       17.52290
O         48.13884       57.56885       17.07395
C         50.01532       60.36055       17.02470
C         51.18391       61.18831       17.57125
C         51.44860       62.35628       16.65737
N         52.54882       62.39175       15.87352
O         50.64412       63.27612       16.61161
H         50.66990       57.55142       17.41879
H         49.33611       59.74021       18.99341
H         49.17567       61.05872       16.82920
H         50.30896       59.90186       16.05196
H         52.07985       60.53846       17.65905
H         50.94578       61.58961       18.58223
H         53.21833       61.60946       15.86898
H         52.71031       63.18964       15.24107
N         47.15248       59.53529       17.55171
C         45.82584       59.24416       17.04804
C         45.60375       60.10632       15.80991
O         45.88633       61.29564       15.82483
C         44.76964       59.54213       18.15162
C         43.33729       59.50529       17.59448
C         44.88377       58.54376       19.31615
H         47.29107       60.48137       17.93688
H         45.72276       58.17341       16.75849
H         44.93767       60.56704       18.54896
H         43.20483       60.30133       16.83254
H         43.11098       58.52070       17.13680
H         42.60301       59.71019       18.40103
H         44.12446       58.77867       20.09405
H         44.70613       57.50592       18.96136
H         45.88530       58.59477       19.79093
N         45.02443       59.54480       14.71769
C         44.69431       60.20985       13.46425
C         43.17901       60.34769       13.37459
O         42.50104       59.93287       14.29490
C         45.27743       59.31971       12.33349
C         44.93519       59.71585       10.92448
N         45.27222       60.93034       10.43913
O         44.34305       58.92320       10.20865
H         44.72641       58.57052       14.79623
H         45.12951       61.23150       13.42304
H         44.92394       58.27327       12.48331
H         46.37585       59.32616       12.42892
H         45.77121       61.61010       11.02913
H         45.00402       61.19724        9.48045
N         42.57617       60.94880       12.31053
C         41.12946       61.02840       12.11420
C         40.54267       59.62310       11.96705
O         39.55902       59.31280       12.62303
C         40.83948       61.84295       10.83265
C         39.39754       62.26902       10.68502
C         38.91285       63.39128       11.38442
C         38.54184       61.59281        9.80420
C         37.59883       63.83396       11.18852
C         37.22625       62.02730        9.62073
C         36.75258       63.15552       10.30494
O         35.49312       63.59846       10.11451
H         43.17174       61.37826       11.59581
H         40.67562       61.56755       12.97621
H         41.16813       61.25463        9.94816
H         41.44670       62.77486       10.81778
H         39.55865       63.94179       12.05831
H         38.89253       60.72911        9.25946
H         37.24082       64.71187       11.71360
H         36.57978       61.49244        8.93728
H         34.88456       63.16622        9.49784
N         41.12437       58.71700       11.11800
C         40.63934       57.34804       10.90842
C         40.69075       56.47605       12.16151
O         40.14587       55.37995       12.14012
C         41.44687       56.61012        9.80996
C         41.61418       57.35165        8.47189
C         40.36530       58.04186        8.00714
O         39.21258       57.36144        7.87118
O         40.39253       59.23850        7.76573
H         41.93903       59.03365       10.58272
H         39.57863       57.42569       10.58281
H         40.92702       55.64672        9.61341
H         42.47058       56.36679       10.17897
H         41.94760       56.61167        7.71287
H         42.41962       58.11119        8.55905
N         41.33490       56.89715       13.28106
C         41.39274       56.16395       14.53843
C         40.54252       56.88100       15.58628
O         40.07865       56.24013       16.51832
C         42.86168       56.08235       15.00231
C         43.77072       55.46694       13.92490
C         45.21159       55.42387       14.32779
O         45.84150       54.39693       14.16875
O         45.85306       56.52637       14.74949
H         41.82619       57.79387       13.24696
H         40.98759       55.13444       14.41146
H         42.93840       55.51611       15.95121
H         43.20227       57.11621       15.19667
H         43.72010       56.08178       13.00327
H         43.43029       54.43670       13.68339
N         40.26639       58.21145       15.46721
C         39.45302       58.97712       16.37494
H         38.43259       58.54963       16.41378
H         39.91871       59.00885       17.38003
H         39.37934       60.02179       15.99133
H         40.63659       58.73760       14.68493
Ca        48.52398       55.33996       14.90683
O         47.07673       55.91828       12.01482
H         47.28027       54.96117       11.90139
H         47.34249       56.32136       11.15354
O         48.49269       58.13636       13.12194
H         48.30697       58.23912       12.15604
H         49.47708       58.17571       13.16669

Ca 1.0



