%chk=holoCaM-CaMKII.loop2.water1.frame129.chk
%nprocshared=20
%mem=10GB
%nosave
#b3lyp/svp scf=(tight,noincore,xqc) Test 
#IOP(5/87=12) Density=Current Pop=(MK,readradii) iop(6/33=2) iop(6/42=6)

holoCaM-CaMKII.loop2.water1.frame129 

   -2  1 
C         43.26890       64.93082       74.73346
C         42.93184       66.11205       73.87432
O         43.46184       66.21497       72.77726
H         44.35666       64.93927       74.95570
H         42.71540       64.95949       75.69599
H         43.00832       63.99384       74.20026
N         42.06596       67.06336       74.32244
C         41.72521       68.25635       73.55756
C         42.99723       69.03460       73.25996
O         43.70306       69.38692       74.19498
C         40.71179       69.10086       74.35987
C         40.16941       70.30123       73.64235
O         40.46696       70.54806       72.48542
O         39.31847       71.10888       74.29637
H         41.64425       66.93763       75.25612
H         41.23648       67.93977       72.61759
H         41.18902       69.43874       75.30432
H         39.83640       68.46484       74.61793
N         43.36524       69.30487       71.97329
C         44.63777       69.92298       71.61500
C         44.47836       71.34086       71.09291
O         45.49134       71.99687       70.89290
C         45.34800       69.03881       70.58525
H         42.72649       69.04267       71.21171
H         45.28395       69.99974       72.51581
H         46.34391       69.45554       70.32640
H         45.48754       68.01555       70.99476
H         44.73902       68.96571       69.65691
N         43.25246       71.89619       70.88228
C         43.04140       73.29230       70.51896
C         42.21027       74.01922       71.58325
O         41.95369       75.20271       71.41030
C         42.44420       73.37750       69.09742
C         41.22937       72.51840       68.88566
O         41.24440       71.63631       68.04226
O         40.12287       72.70898       69.61561
H         42.41064       71.31801       71.00097
H         44.00670       73.84385       70.47418
H         43.22626       73.03750       68.38246
H         42.20719       74.43511       68.85171
N         41.81722       73.40271       72.74130
C         41.14080       74.07369       73.84214
C         39.72213       74.54478       73.57481
O         39.14416       75.10275       74.49741
H         42.08591       72.42704       72.91750
H         41.75784       74.94128       74.16391
H         41.08722       73.36865       74.70066
N         39.09015       74.40058       72.37244
C         37.76361       74.96922       72.12872
C         36.64284       74.28131       72.90767
O         35.58076       74.87527       73.02810
C         37.45846       75.07410       70.61997
C         37.34747       73.77091       69.87002
N         37.15958       73.79772       68.53129
O         37.43940       72.69788       70.44697
H         39.59249       73.96379       71.59460
H         37.81152       76.02310       72.48589
H         38.28115       75.66064       70.15405
H         36.51274       75.63857       70.47583
H         37.09104       74.69409       68.02805
H         37.09741       72.92695       67.99048
N         36.80545       73.05083       73.47572
C         35.83393       72.43543       74.37237
C         35.26525       71.11438       73.88884
O         34.58714       70.47465       74.68023
H         37.67992       72.54064       73.30919
H         34.97951       73.11181       74.58864
H         36.35903       72.25053       75.33421
N         35.43952       70.65633       72.61536
C         34.87981       69.39117       72.13155
C         36.01509       68.54989       71.51128
O         36.49652       69.23806       70.39683
C         33.72694       69.65139       71.11717
C         32.54012       70.37461       71.76444
O         34.16181       70.36180       69.98352
H         35.96028       71.24069       71.94820
H         34.45116       68.80644       72.97492
H         33.34640       68.66731       70.76738
H         34.37804       71.28999       70.26094
H         32.14543       69.77970       72.61436
H         32.84241       71.37759       72.13370
H         31.73086       70.50440       71.01470
N         35.60696       67.18358       71.12452
C         36.77240       66.29754       70.85683
C         36.72930       65.89411       69.38619
O         35.82361       65.16870       68.99822
C         36.79360       65.02114       71.78257
C         36.90756       65.39503       73.28747
C         37.95282       64.07390       71.39556
C         36.74671       64.19108       74.22763
H         34.95393       66.77155       71.82868
H         37.72335       66.83929       71.04483
H         35.83715       64.47362       71.62701
H         36.10733       66.10806       73.56588
H         37.88464       65.88830       73.48414
H         37.93883       63.13550       71.98283
H         37.86086       63.74909       70.34609
H         38.93458       64.57271       71.53905
H         35.76583       63.69787       74.05488
H         37.55532       63.44428       74.10019
H         36.78563       64.53382       75.28258
N         37.68251       66.32942       68.50621
C         37.73246       65.90221       67.10428
C         38.18081       64.45422       67.00272
O         38.52369       63.87151       68.01950
C         38.73168       66.76651       66.30689
C         38.33888       68.21067       66.28644
O         39.16692       69.14301       66.79481
O         37.27959       68.54815       65.78245
H         38.39073       66.99497       68.84386
H         36.72197       66.01947       66.65187
H         38.76902       66.42959       65.25059
H         39.74702       66.66136       66.74906
N         38.21558       63.79370       65.81053
C         38.67882       62.41457       65.71356
C         40.17914       62.30317       66.00359
O         40.51689       61.51087       66.86743
C         38.28716       61.75233       64.37211
C         38.56418       60.26185       64.38133
C         39.45535       59.69000       63.45644
C         37.92033       59.42412       65.31417
C         39.69867       58.31133       63.46977
C         38.16935       58.04981       65.32521
C         39.05746       57.49304       64.40383
H         37.86718       64.26983       64.96260
H         38.12458       61.83676       66.48549
H         38.79853       62.23143       63.52052
H         37.19621       61.88744       64.20930
H         39.96181       60.30756       62.72563
H         37.22115       59.82886       66.03413
H         40.38439       57.87534       62.75513
H         37.67033       57.41664       66.04796
H         39.24602       56.42717       64.41319
N         41.14220       63.05511       65.36309
C         42.57398       62.97189       65.66411
C         42.88630       63.05639       67.14379
O         43.83492       62.43163       67.59964
C         43.15884       64.20564       64.95663
C         42.26521       64.32206       63.74957
C         40.89282       64.07863       64.36598
H         42.97393       62.03008       65.23020
H         42.97372       65.12196       65.56617
H         44.24783       64.14263       64.74290
H         42.35358       65.27086       63.17794
H         42.50396       63.47072       63.07142
H         40.51632       64.98683       64.87869
H         40.21211       63.78401       63.55166
N         42.13316       63.84961       67.94597
C         42.35929       64.01596       69.37269
C         41.98083       62.74250       70.10944
O         42.81498       62.18992       70.81145
C         41.56507       65.23529       69.86799
C         42.04919       66.50978       69.13062
C         41.24710       67.70932       69.48940
O         41.42406       68.76502       68.90355
O         40.29443       67.61425       70.42229
H         41.35356       64.36724       67.50978
H         43.43083       64.25244       69.56025
H         41.70647       65.36502       70.96260
H         40.48022       65.07739       69.67289
H         41.93063       66.38604       68.03563
H         43.12087       66.70257       69.34652
N         40.74026       62.20003       69.96349
C         40.34361       60.96156       70.59737
H         39.30600       60.69935       70.29453
H         41.01741       60.13879       70.27606
H         40.37668       61.06667       71.70140
H         40.05793       62.66445       69.35639
Ca        38.71318       69.14219       70.54463
O         36.57018       70.41299       67.91526
H         37.01639       70.76522       67.10593
H         35.71935       70.91482       67.96302

Ca 1.0



