%chk=holoCaM.loop2.water2.frame329.chk
%nprocshared=20
%mem=10GB
%nosave
#b3lyp/svp scf=(tight,noincore,xqc) Test 
#IOP(5/87=12) Density=Current Pop=(MK,readradii) iop(6/33=2) iop(6/42=6)

holoCaM.loop2.water2.frame329 

   -2  1 
C        103.77242       45.67888       -6.82794
C        103.55030       45.13844       -8.21881
O        102.71685       44.26415       -8.39550
H        104.53692       46.48687       -6.82144
H        102.82686       46.10996       -6.43476
H        104.11607       44.87233       -6.14903
N        104.26030       45.64452       -9.26242
C        104.06877       45.28034      -10.66642
C        104.37516       43.82077      -10.97555
O        105.45043       43.34643      -10.63958
C        104.95973       46.19012      -11.53013
C        104.90889       45.95937      -13.02096
O        105.95173       45.72616      -13.61017
O        103.77342       46.14088      -13.73397
H        104.94517       46.38601       -9.04647
H        103.02585       45.50277      -10.92166
H        106.01228       46.06435      -11.19328
H        104.66376       47.24571      -11.34470
N        103.48494       43.08379      -11.70728
C        103.70079       41.71564      -12.15825
C        103.67549       41.58801      -13.68955
O        103.86703       40.47792      -14.16693
C        102.58553       40.83824      -11.57020
H        102.60200       43.51847      -11.98851
H        104.68076       41.33957      -11.79540
H        101.59143       41.17955      -11.93896
H        102.71971       39.77450      -11.85981
H        102.58654       40.90394      -10.46175
N        103.37919       42.63924      -14.51799
C        103.12048       42.48198      -15.95366
C        103.73676       43.57629      -16.84277
O        103.54826       43.50402      -18.04968
C        101.58981       42.37892      -16.15371
C        100.81863       43.45321      -15.43615
O        101.01227       44.62588      -15.68523
O         99.93045       43.11979      -14.48022
H        103.15208       43.55117      -14.10364
H        103.54488       41.52420      -16.32801
H        101.25450       41.40682      -15.73188
H        101.33848       42.37585      -17.23636
N        104.49940       44.59252      -16.34820
C        105.14235       45.61770      -17.17091
C        104.20992       46.58145      -17.90302
O        104.72352       47.41947      -18.63075
H        104.70211       44.60197      -15.34857
H        105.78999       45.11179      -17.91979
H        105.80164       46.23425      -16.52135
N        102.85166       46.52600      -17.79431
C        101.93778       47.35948      -18.58451
C        101.92961       48.84996      -18.21841
O        101.21595       49.59873      -18.87207
C        100.50354       46.77879      -18.50520
C         99.85728       46.82985      -17.14077
N         98.62537       46.30117      -16.96605
O        100.43628       47.33284      -16.18971
H        102.44739       45.80228      -17.19471
H        102.24293       47.26809      -19.65035
H        100.54596       45.71467      -18.82765
H         99.84589       47.32151      -19.21696
H         98.12463       45.86105      -17.75148
H         98.17313       46.32650      -16.04234
N        102.66556       49.35317      -17.18810
C        102.65106       50.75237      -16.78048
C        101.28949       51.19639      -16.28639
O        100.84212       52.25687      -16.68935
H        103.27155       48.72322      -16.64912
H        102.99816       51.40633      -17.61266
H        103.36456       50.87481      -15.93881
N        100.60665       50.44514      -15.37437
C         99.28572       50.75464      -14.81477
C         98.94331       49.74412      -13.72348
O         98.95446       48.55151      -13.99565
C         98.11580       50.68485      -15.84797
C         98.01745       51.82920      -16.85399
O         98.13683       49.46700      -16.54919
H        101.07231       49.59010      -15.04468
H         99.29959       51.76733      -14.35543
H         97.16865       50.78285      -15.26022
H         97.51756       48.84489      -16.08705
H         97.05656       51.74469      -17.40437
H         98.02876       52.80746      -16.32600
H         98.80796       51.78150      -17.62185
N         98.56622       50.15259      -12.47623
C         98.10613       49.21005      -11.45476
C         96.88513       48.42252      -11.93401
O         96.15054       48.87642      -12.80092
C         97.88122       49.93569      -10.07822
C         99.27056       50.20232       -9.43448
C         96.97330       49.15690       -9.10360
C         99.23567       50.94892       -8.09986
H         98.57694       51.16107      -12.26118
H         98.90577       48.46130      -11.32567
H         97.34868       50.89365      -10.27021
H         99.89329       50.79369      -10.13849
H         99.78022       49.22808       -9.25759
H         97.42221       48.18793       -8.81992
H         96.77727       49.74166       -8.18321
H         95.97185       48.99631       -9.55428
H        100.27600       51.09348       -7.73852
H         98.75418       51.94021       -8.22216
H         98.70472       50.36594       -7.31953
N         96.66325       47.18110      -11.40994
C         95.56328       46.28974      -11.75695
C         94.74968       45.98458      -10.50548
O         95.08736       46.48124       -9.44277
C         96.13256       44.96537      -12.31714
C         96.97923       45.15748      -13.54253
O         98.12477       45.86076      -13.47257
O         96.65539       44.63704      -14.59818
H         97.33034       46.82855      -10.71261
H         94.89835       46.75672      -12.51642
H         95.29341       44.28705      -12.57770
H         96.75487       44.46360      -11.54290
N         93.66113       45.16741      -10.54487
C         92.91265       44.79834       -9.34609
C         93.74878       43.98036       -8.34911
O         93.83392       44.41783       -7.21123
C         91.62014       44.03561       -9.70016
C         90.82385       43.72264       -8.45093
C         90.32628       44.76126       -7.64071
C         90.59207       42.38957       -8.07203
C         89.61823       44.46892       -6.47212
C         89.88187       42.10232       -6.90201
C         89.39694       43.14062       -6.10221
H         93.34743       44.80598      -11.45930
H         92.59416       45.74332       -8.85158
H         91.87534       43.10296      -10.24264
H         90.99487       44.65349      -10.37999
H         90.48951       45.79762       -7.90750
H         90.96903       41.57298       -8.67487
H         89.24411       45.27332       -5.85168
H         89.71123       41.07377       -6.61260
H         88.85077       42.91647       -5.19520
N         94.37467       42.79309       -8.65744
C         95.13087       41.99371       -7.69106
C         96.22018       42.79804       -7.01055
O         96.37077       42.68400       -5.80144
C         95.67659       40.82187       -8.52709
C         95.73052       41.38523       -9.93321
C         94.43947       42.19114       -9.97611
H         94.48305       41.57432       -6.88943
H         96.61253       40.35328       -8.15183
H         94.89036       40.03401       -8.55535
H         96.59443       42.07528      -10.01564
H         95.82554       40.62839      -10.74079
H         94.48774       42.89819      -10.81823
H         93.57528       41.49969      -10.09002
N         96.97562       43.67623       -7.71063
C         98.01005       44.50883       -7.11296
C         97.41534       45.41845       -6.05472
O         97.86915       45.39052       -4.91983
C         98.66796       45.35382       -8.20821
C         99.37221       44.47079       -9.24731
C         99.94071       45.27412      -10.36550
O         99.79530       46.47975      -10.42728
O        100.73368       44.66693      -11.24489
H         96.77189       43.78699       -8.71197
H         98.79513       43.86784       -6.65054
H         99.41852       46.04235       -7.75837
H         97.88649       45.95646       -8.70741
H         98.69694       43.72009       -9.70330
H        100.19394       43.92458       -8.73993
N         96.37931       46.24285       -6.36802
C         95.74062       47.14400       -5.43501
H         94.67046       46.86431       -5.33602
H         96.21167       47.11676       -4.43144
H         95.80281       48.17948       -5.83114
H         96.00679       46.22247       -7.32064
Ca       101.71869       45.83162      -12.88790
O        103.09669       48.68353      -14.01116
H        104.01351       48.65562      -14.38279
H        103.08433       49.48643      -13.43552
O        101.65237       48.67101      -11.30567
H        102.23283       49.37604      -10.92482
H        101.98595       47.83358      -10.89816

Ca 1.0



