%chk=holoCaM.loop2.water2.frame267.chk
%nprocshared=20
%mem=10GB
%nosave
#b3lyp/svp scf=(tight,noincore,xqc) Test 
#IOP(5/87=12) Density=Current Pop=(MK,readradii) iop(6/33=2) iop(6/42=6)

holoCaM.loop2.water2.frame267 

   -2  1 
C         26.14668        6.85144       45.28900
C         24.65522        6.86072       45.11492
O         23.92975        6.95085       46.09468
H         26.58187        7.72700       44.75821
H         26.42443        6.91986       46.36149
H         26.57495        5.92341       44.85732
N         24.13127        6.82259       43.86254
C         22.70946        6.96707       43.58345
C         21.89154        5.73913       43.98569
O         22.27556        4.61534       43.69359
C         22.51444        7.34612       42.11134
C         21.06949        7.57792       41.80207
O         20.27551        8.38201       42.55441
O         20.57219        6.93676       40.89315
H         24.79022        6.78459       43.06786
H         22.33905        7.85435       44.14199
H         22.91272        6.54766       41.44443
H         23.08083        8.27475       41.90937
N         20.71350        5.92799       44.64712
C         19.82449        4.88933       45.14698
C         18.38812        5.03258       44.61441
O         17.55498        4.21343       44.97876
C         19.79142        5.03013       46.67641
H         20.43496        6.89003       44.83067
H         20.22438        3.88574       44.88565
H         19.25933        4.18015       47.15043
H         20.82679        5.07041       47.07878
H         19.28020        5.97753       46.96451
N         18.00738        6.09228       43.83248
C         16.62275        6.39383       43.46544
C         16.41296        6.70397       41.96909
O         15.27280        6.65198       41.52910
C         16.11614        7.54808       44.36735
C         17.06174        8.72127       44.45774
O         17.40529        9.32265       43.46340
O         17.55585        9.10142       45.65044
H         18.70502        6.79655       43.59175
H         15.97518        5.51568       43.68389
H         16.01680        7.15788       45.40285
H         15.11248        7.88415       44.03155
N         17.43776        7.03636       41.13180
C         17.29828        7.29646       39.70041
C         16.99018        8.74602       39.35214
O         16.90112        9.05110       38.17117
H         18.37170        7.11736       41.51965
H         16.52826        6.62636       39.26114
H         18.26076        7.03327       39.20908
N         16.78219        9.68601       40.31501
C         16.35858       11.05848       40.04963
C         17.43090       11.96668       39.41804
O         17.12333       13.12770       39.18404
C         15.77838       11.69572       41.34093
C         16.77627       12.04041       42.40591
N         16.38599       12.74022       43.48878
O         17.94144       11.71744       42.29318
H         16.80972        9.37803       41.28426
H         15.49367       11.00472       39.35364
H         15.01032       11.02360       41.78488
H         15.27935       12.64419       41.05636
H         15.40503       13.01796       43.62197
H         17.08061       13.03933       44.17606
N         18.68487       11.52863       39.09141
C         19.67708       12.37049       38.42298
C         20.41877       13.34491       39.32789
O         21.26092       14.06999       38.81730
H         18.92699       10.54004       39.23114
H         19.19504       12.90717       37.57607
H         20.46131       11.71325       37.99139
N         20.17979       13.41571       40.66690
C         20.88130       14.29496       41.59304
C         21.41891       13.48366       42.81876
O         20.39023       12.85601       43.53971
C         19.95458       15.47983       41.98578
C         19.68938       16.38942       40.77755
O         18.71985       15.02207       42.47237
H         19.44649       12.83169       41.05557
H         21.77589       14.74177       41.10293
H         20.45385       16.12658       42.74372
H         18.86263       14.72922       43.40676
H         19.15994       15.83983       39.97109
H         19.06007       17.25288       41.08052
H         20.64543       16.78683       40.37109
N         22.16653       14.37069       43.71825
C         22.51494       13.88469       45.06355
C         21.49289       14.39135       46.06137
O         21.24700       15.58588       46.15452
C         24.00851       14.21647       45.40891
C         24.88776       13.07375       44.83014
C         24.26002       14.36842       46.92382
C         26.39230       13.30045       44.88903
H         22.68848       15.18644       43.32180
H         22.43101       12.78027       45.10100
H         24.27992       15.19242       44.95153
H         24.62081       12.91030       43.76392
H         24.67317       12.14191       45.39921
H         23.98318       13.44567       47.47243
H         25.32125       14.61093       47.13162
H         23.67251       15.22208       47.32423
H         26.75308       13.39611       45.93202
H         26.89944       12.41806       44.44067
H         26.65977       14.20309       44.30475
N         20.91743       13.48314       46.89995
C         20.01719       13.78891       47.99029
C         20.80474       13.65017       49.26335
O         21.96165       13.27436       49.20491
C         18.82893       12.80274       48.00795
C         18.11009       12.76796       46.70303
O         18.68152       12.34108       45.71303
O         16.82438       13.15977       46.62645
H         21.22983       12.51149       46.85599
H         19.65419       14.83652       47.90962
H         18.11912       13.08959       48.81236
H         19.18222       11.76591       48.21135
N         20.27447       13.99587       50.45530
C         21.07006       13.98600       51.67092
C         21.45812       12.57293       52.13612
O         22.63285       12.40324       52.43594
C         20.40186       14.87939       52.71850
C         21.20173       14.99687       53.98612
C         22.54189       15.43573       53.97977
C         20.58998       14.67377       55.20300
C         23.25273       15.53065       55.17906
C         21.29955       14.78087       56.39770
C         22.63073       15.20469       56.38717
H         19.31495       14.37482       50.47499
H         22.02245       14.51668       51.44215
H         19.37543       14.51726       52.92607
H         20.31321       15.89900       52.27698
H         23.04372       15.69962       53.05678
H         19.55824       14.34609       55.22486
H         24.28453       15.85886       55.17227
H         20.81225       14.53405       57.33022
H         23.17809       15.28245       57.31607
N         20.60430       11.49198       52.17613
C         21.02448       10.13253       52.54016
C         22.15171        9.55118       51.68740
O         22.64844        8.48079       52.00905
C         19.78072        9.27787       52.26890
C         18.65393       10.25343       52.49832
C         19.19440       11.53557       51.86426
H         21.31137       10.15812       53.61589
H         19.73987        9.02996       51.18128
H         19.73592        8.32629       52.84236
H         17.66799        9.92502       52.10494
H         18.57687       10.40890       53.59689
H         19.08277       11.53577       50.75889
H         18.66776       12.39731       52.31936
N         22.57057       10.19241       50.56391
C         23.61228        9.73371       49.66352
C         24.86473       10.52759       49.97606
O         25.90940        9.93563       50.20653
C         23.14277        9.93217       48.19962
C         21.81319        9.19501       47.94566
C         21.25481        9.37633       46.57034
O         21.50203       10.48267       45.86292
O         20.34697        8.65670       46.21216
H         22.11560       11.06886       50.29844
H         23.83025        8.65175       49.81629
H         23.92357        9.54942       47.50491
H         23.00071       11.01524       47.99676
H         21.02585        9.56530       48.63534
H         21.95771        8.10981       48.12995
N         24.80312       11.88221       50.09387
C         25.91439       12.69902       50.51314
H         26.73619       12.63313       49.77418
H         25.58121       13.75776       50.59532
H         26.26279       12.37001       51.51529
H         23.91589       12.36050       49.93763
Ca        20.30077       10.60488       43.06542
O         23.17198       10.56176       43.52245
H         23.96330       10.06181       43.21082
H         23.33832       10.66379       44.48643
O         21.46687       10.74580       40.67570
H         20.89479       10.00178       40.36503
H         22.12579       10.31275       41.27014

Ca 1.0



