%chk=holoCaM.loop3.water2.frame190.chk
%nprocshared=20
%mem=10GB
%nosave
#b3lyp/svp scf=(tight,noincore,xqc) Test 
#IOP(5/87=12) Density=Current Pop=(MK,readradii) iop(6/33=2) iop(6/42=6)

holoCaM.loop3.water2.frame190 

   0  1 
C         41.01096       68.58043       76.44411
C         41.77953       69.82071       76.75547
O         42.76461       70.09875       76.08489
H         39.97286       68.85939       76.16549
H         41.47826       68.03702       75.59606
H         40.99344       67.92430       77.33773
N         41.36138       70.64156       77.75706
C         42.02924       71.89635       78.04564
C         43.45433       71.61963       78.52935
O         43.63889       71.04572       79.59316
C         41.15616       72.74266       79.00063
C         41.57266       74.17254       79.02084
O         42.82735       74.48849       78.69929
O         40.80394       75.03684       79.40304
H         40.50834       70.38873       78.28024
H         42.05994       72.46041       77.08448
H         41.08231       72.32302       80.02717
H         40.13363       72.74836       78.56848
N         44.50322       71.91983       77.71063
C         45.89589       71.54635       77.94895
C         46.47621       72.24740       79.16169
O         47.00998       71.57660       80.03450
C         46.72891       71.85998       76.68049
C         48.15719       71.29176       76.75394
C         48.94001       71.43478       75.43647
C         49.20067       72.89311       75.03012
N         50.04677       72.95496       73.83749
H         44.28176       72.36190       76.80975
H         45.94207       70.44303       78.09528
H         46.74792       72.95672       76.50368
H         46.22516       71.37542       75.81478
H         48.08713       70.20287       76.97020
H         48.72377       71.77337       77.57944
H         48.39681       70.91188       74.61790
H         49.91990       70.92834       75.57531
H         49.71144       73.42320       75.86374
H         48.23936       73.40842       74.81848
H         50.20123       73.95561       73.57680
H         50.97462       72.51285       74.03345
H         49.58528       72.46296       73.03807
N         46.38847       73.60182       79.28261
C         46.92961       74.34894       80.41586
C         45.85510       74.69015       81.44382
O         46.19067       75.28667       82.45784
C         47.76668       75.56642       79.92931
C         47.06138       76.61529       79.10087
O         45.76714       76.50873       78.78935
O         47.67899       77.59140       78.71151
H         45.85396       74.10827       78.56397
H         47.63893       73.70602       80.98322
H         48.61136       75.18090       79.32033
H         48.19110       76.07774       80.82048
N         44.56407       74.26924       81.29933
C         43.54132       74.43232       82.31718
C         43.31459       75.87442       82.68311
O         43.45559       76.19886       83.85420
H         44.28987       73.74661       80.46046
H         43.83935       73.86085       83.22554
H         42.58581       73.99668       81.95066
N         42.95273       76.79633       81.74375
C         42.69968       78.19721       82.07804
C         41.24977       78.60618       81.82433
O         40.91694       79.75013       82.09943
C         43.72173       79.12626       81.37708
C         43.56354       79.32370       79.88945
N         44.39489       80.16368       79.23252
O         42.67473       78.76429       79.27458
H         42.85444       76.48973       80.76530
H         42.86621       78.35199       83.16504
H         44.74694       78.74689       81.58671
H         43.63145       80.13349       81.83451
H         45.14397       80.66191       79.73449
H         44.27881       80.33010       78.22216
N         40.32992       77.73173       81.31888
C         38.92334       78.04684       81.12744
C         38.51594       78.06982       79.66821
O         37.32297       78.14896       79.41277
H         40.61237       76.77563       81.07714
H         38.65030       79.02935       81.56759
H         38.33400       77.26893       81.66025
N         39.43677       78.08742       78.65899
C         39.08346       78.18288       77.24529
C         39.81469       77.11304       76.44336
O         40.91730       76.74367       76.82283
C         39.42877       79.58251       76.68785
C         38.77346       80.70091       77.47153
C         39.34467       81.15283       78.67593
C         37.59756       81.31219       77.00420
C         38.74846       82.19057       79.39925
C         36.99630       82.34312       77.73593
C         37.57124       82.78613       78.93620
O         37.00423       83.78015       79.65026
H         40.43318       78.10233       78.89756
H         37.98726       78.05461       77.10915
H         39.07756       79.61352       75.63261
H         40.52208       79.76648       76.66823
H         40.25865       80.70941       79.05106
H         37.13785       80.98339       76.08097
H         39.20241       82.53238       80.32140
H         36.08402       82.79710       77.36946
H         36.18658       84.21584       79.36985
N         39.27287       76.58897       75.30264
C         39.95264       75.58284       74.48256
C         40.13772       76.12959       73.07458
O         39.14775       76.36044       72.39305
C         39.13237       74.25557       74.44669
C         38.90736       73.71048       75.87805
C         39.84137       73.19926       73.57067
C         37.98783       72.48643       75.92790
H         38.34100       76.91409       75.00280
H         40.95349       75.34854       74.90996
H         38.13755       74.47666       73.99901
H         38.42351       74.49427       76.49831
H         39.88539       73.45796       76.33651
H         40.83382       72.93898       73.99618
H         39.23814       72.27668       73.47016
H         39.98088       73.57137       72.54052
H         38.42600       71.61711       75.39861
H         37.83116       72.18420       76.98406
H         37.00138       72.73185       75.47894
N         41.38397       76.35938       72.56937
C         41.60246       76.82627       71.20012
C         41.36147       75.70364       70.19560
O         41.11301       74.57955       70.59789
C         43.03116       77.38374       71.04793
O         43.97977       76.38300       71.27822
H         42.19657       76.21998       73.18701
H         40.90947       77.67171       70.99712
H         43.16562       78.20539       71.78724
H         43.17483       77.79623       70.02581
H         44.86179       76.83608       71.31849
N         41.44396       75.93705       68.85633
C         41.32487       74.88014       67.85270
C         42.45584       73.87565       68.00472
O         42.19643       72.68325       68.08253
C         41.36575       75.48257       66.44346
H         41.61703       76.90303       68.53918
H         40.34171       74.36701       67.95540
H         40.52382       76.19626       66.31633
H         42.32020       76.02117       66.26396
H         41.25713       74.68003       65.68199
N         43.74424       74.31388       68.08306
C         44.91152       73.44706       68.23158
C         44.78333       72.51700       69.42518
O         44.96129       71.31786       69.26367
C         46.17043       74.31084       68.38877
H         43.89923       75.33407       68.05548
H         45.03478       72.83286       67.31185
H         47.07260       73.67028       68.48258
H         46.29525       74.96440       67.49886
H         46.09362       74.95678       69.29083
N         44.44621       73.00637       70.64936
C         44.28412       72.18334       71.84753
C         43.29110       71.06247       71.59076
O         43.64082       69.90809       71.79730
C         43.83749       73.05996       73.04351
C         44.94807       74.04117       73.46975
C         44.48790       74.97688       74.55303
O         44.05195       74.49913       75.73041
O         44.52123       76.18382       74.37450
H         44.25868       74.01448       70.71283
H         45.25837       71.71566       72.11645
H         43.60537       72.41020       73.91700
H         42.91450       73.61498       72.76521
H         45.28445       74.64778       72.60640
H         45.82444       73.46390       73.83381
N         42.05469       71.31870       71.08797
C         41.11677       70.26326       70.77261
H         40.19777       70.69522       70.32244
H         41.56866       69.56128       70.03796
H         40.84208       69.70955       71.69439
H         41.78352       72.28732       70.88592
Ca        43.63660       76.47158       78.21780
O         45.65811       78.54714       76.36295
H         45.57162       79.22170       75.64354
H         46.00051       79.05775       77.13809
O         42.81276       78.73969       75.88440
H         42.25875       78.74538       75.06391
H         42.87878       79.69156       76.14920

Ca 1.0



