%chk=holoCaM-CaMKII.loop2.water2.frame425.chk
%nprocshared=20
%mem=10GB
%nosave
#b3lyp/svp scf=(tight,noincore,xqc) Test 
#IOP(5/87=12) Density=Current Pop=(MK,readradii) iop(6/33=2) iop(6/42=6)

holoCaM-CaMKII.loop2.water2.frame425 

   -2  1 
C         62.11823       65.69760       26.22784
C         62.60644       65.15000       24.91194
O         63.51813       65.71870       24.33345
H         61.29249       65.08189       26.64619
H         62.94990       65.69713       26.96470
H         61.74843       66.73534       26.09838
N         62.05113       64.02287       24.39125
C         62.51035       63.36655       23.16815
C         62.32178       64.22162       21.92153
O         61.20543       64.64976       21.66252
C         61.73351       62.04837       22.98685
C         62.16563       61.32307       21.74881
O         63.45751       60.98536       21.58255
O         61.35152       61.06433       20.87733
H         61.28814       63.57796       24.92607
H         63.58511       63.10489       23.28684
H         60.64155       62.25860       22.93169
H         61.91577       61.39186       23.86295
N         63.36755       64.43251       21.06138
C         63.23554       65.14785       19.79232
C         63.63733       64.31811       18.55846
O         63.45782       64.82822       17.46130
C         64.09340       66.41549       19.85460
H         64.29674       64.06873       21.31754
H         62.17908       65.45857       19.64241
H         63.98165       67.01324       18.92499
H         63.77776       67.04561       20.71346
H         65.16567       66.15076       19.98427
N         64.22812       63.08461       18.63680
C         64.72891       62.34342       17.46280
C         64.30114       60.86683       17.42312
O         64.68470       60.18626       16.48107
C         66.27063       62.47543       17.38331
C         66.90756       62.23590       18.71050
O         67.52660       63.13789       19.25401
O         66.64495       61.11764       19.39698
H         64.43306       62.69538       19.56671
H         64.34338       62.78816       16.51970
H         66.51695       63.51871       17.08436
H         66.69240       61.79971       16.60940
N         63.48331       60.30689       18.35878
C         62.98105       58.93645       18.28522
C         63.98947       57.82543       18.55421
O         63.57396       56.67523       18.52508
H         63.11452       60.89885       19.10792
H         62.50798       58.77672       17.29125
H         62.18652       58.81921       19.05333
N         65.30543       58.05696       18.82916
C         66.27000       56.98213       19.08732
C         66.06512       56.25390       20.42625
O         66.82611       55.33416       20.69547
C         67.72227       57.50917       18.95685
C         68.14163       58.55990       19.95320
N         69.38685       59.08194       19.88921
O         67.36938       58.95309       20.81093
H         65.64643       59.02167       18.79687
H         66.16766       56.22986       18.27305
H         67.84245       57.93950       17.93867
H         68.42619       56.65303       19.04515
H         70.05291       58.76872       19.16863
H         69.68626       59.80353       20.55821
N         65.06457       56.57277       21.30280
C         64.83426       55.84793       22.55033
C         65.85365       56.11944       23.64984
O         65.73176       55.51009       24.70258
H         64.39163       57.30970       21.06031
H         64.78710       54.75856       22.33073
H         63.84500       56.14476       22.96042
N         66.86296       57.02259       23.49780
C         67.87403       57.32095       24.50885
C         67.86804       58.80328       24.84795
O         67.90853       59.61853       23.94066
C         69.27807       56.93422       23.98444
C         69.40070       55.42935       23.74895
O         69.57259       57.60482       22.78402
H         66.93869       57.52478       22.61153
H         67.70538       56.73644       25.44073
H         70.03471       57.19034       24.76591
H         70.06137       58.43594       23.02089
H         68.68324       55.09117       22.97234
H         70.43058       55.18963       23.40893
H         69.20442       54.87614       24.69215
N         67.88656       59.22667       26.14370
C         68.03761       60.63582       26.51612
C         69.38934       61.15251       26.01502
O         70.40965       60.55568       26.33017
C         67.90518       60.83095       28.06454
C         66.48350       60.40697       28.53474
C         68.18003       62.30197       28.45319
C         66.25942       60.51105       30.04585
H         67.84965       58.51422       26.88798
H         67.21885       61.22851       26.05429
H         68.66453       60.19641       28.57413
H         66.29772       59.34902       28.25943
H         65.71826       61.03042       28.02427
H         69.20101       62.60901       28.15127
H         67.44291       62.97970       27.97298
H         68.14492       62.44686       29.55056
H         66.31807       61.56065       30.39765
H         65.24021       60.14358       30.29025
H         67.00174       59.89213       30.59184
N         69.45928       62.30622       25.28572
C         70.70477       62.93237       24.83797
C         70.96139       64.18553       25.66129
O         70.17295       64.48117       26.54464
C         70.62150       63.29225       23.33775
C         70.43177       62.09102       22.46145
O         69.31646       61.35300       22.56442
O         71.27122       61.79906       21.62484
H         68.58758       62.81916       25.10492
H         71.57047       62.25360       25.00280
H         71.56059       63.79631       23.02676
H         69.77993       63.99779       23.16229
N         72.07407       64.95205       25.46810
C         72.37465       66.11045       26.30388
C         71.33200       67.22740       26.19514
O         70.83364       67.61746       27.24240
C         73.79308       66.66209       26.04811
C         74.11684       67.74152       27.06063
C         74.16009       67.43312       28.43484
C         74.34991       69.06481       26.65079
C         74.41672       68.43011       29.37746
C         74.60907       70.06026       27.59993
C         74.63907       69.74359       28.96127
H         72.75685       64.66947       24.74845
H         72.37814       65.74311       27.35327
H         73.87173       67.04932       25.01394
H         74.54054       65.84614       26.15235
H         73.98786       66.42229       28.78195
H         74.31852       69.32930       25.60141
H         74.43822       68.18283       30.43128
H         74.78065       71.07981       27.28130
H         74.83347       70.51504       29.69483
N         70.92907       67.80390       25.01223
C         69.96131       68.89865       24.93606
C         68.53497       68.48456       25.29635
O         67.64889       69.32140       25.19039
C         70.09191       69.38482       23.48830
C         70.39543       68.10318       22.75140
C         71.40048       67.43722       23.68958
H         70.24622       69.74489       25.59993
H         69.23860       69.98435       23.10378
H         71.01005       70.01330       23.41581
H         69.45977       67.49871       22.74150
H         70.75298       68.22603       21.70675
H         71.37969       66.34853       23.48951
H         72.41853       67.85415       23.54218
N         68.24649       67.24950       25.79388
C         66.93510       66.83663       26.26227
C         66.94859       66.85131       27.77731
O         66.13295       67.54276       28.36988
C         66.61777       65.42506       25.74235
C         66.71521       65.34524       24.21621
C         66.48709       63.95846       23.70469
O         66.66048       63.72968       22.40194
O         66.18974       63.03479       24.44296
H         68.99362       66.56289       25.91029
H         66.14481       67.53500       25.90480
H         65.60321       65.12121       26.08056
H         67.35370       64.70580       26.16221
H         67.73904       65.63700       23.89854
H         65.99240       66.03874       23.73851
N         67.88532       66.13898       28.46753
C         68.01152       66.14407       29.90793
H         69.01486       66.53715       30.17954
H         67.24161       66.77389       30.39779
H         67.92262       65.10472       30.28614
H         68.57162       65.57652       27.95349
Ca        66.54027       61.68035       21.53798
O         64.36733       58.99176       23.30987
H         63.59859       58.72378       22.74685
H         64.01072       58.96001       24.23119
O         64.31739       61.26494       25.60403
H         63.39244       60.95006       25.75784
H         64.37166       62.12049       26.09903

Ca 1.0



