%chk=holoCaM-CaMKII.loop1.water2.frame293.chk
%nprocshared=20
%mem=10GB
%nosave
#b3lyp/svp scf=(tight,noincore,xqc) Test 
#IOP(5/87=12) Density=Current Pop=(MK,readradii) iop(6/33=2) iop(6/42=6)

holoCaM-CaMKII.loop1.water2.frame293 

   0  1 
C         52.10838       29.72189       81.78248
C         53.42208       29.19940       81.29800
O         54.26557       28.86863       82.11664
H         51.29711       29.05310       81.42549
H         52.08574       29.75041       82.89297
H         51.94773       30.74574       81.38806
N         53.65804       29.08582       79.96131
C         54.88409       28.51587       79.41795
C         56.08890       29.34712       79.85593
O         56.28717       30.44655       79.35822
C         54.76004       28.42822       77.88364
C         55.85590       27.67594       77.20593
O         56.84312       27.08261       77.90085
O         55.82380       27.57076       75.99489
H         52.90967       29.37831       79.31329
H         54.96450       27.47971       79.82129
H         54.70349       29.45456       77.46054
H         53.81685       27.90259       77.62453
N         56.86267       28.90750       80.88715
C         57.92557       29.69305       81.51499
C         59.21558       29.72104       80.70100
O         60.05705       30.56840       80.96423
C         58.15474       29.12618       82.93273
C         59.15449       29.89653       83.79925
C         59.06952       29.38643       85.24372
C         60.05949       30.10675       86.16187
N         59.85415       29.70423       87.55326
H         56.57127       28.03190       81.33934
H         57.54891       30.73405       81.62935
H         58.47928       28.06358       82.87304
H         57.16430       29.15549       83.44047
H         58.89690       30.97760       83.79122
H         60.18351       29.76173       83.40127
H         59.26867       28.29208       85.27908
H         58.03712       29.57020       85.61595
H         59.91540       31.20677       86.08105
H         61.09816       29.86108       85.84697
H         58.89757       29.99155       87.86629
H         59.95837       28.66846       87.65377
H         60.56117       30.18077       88.15758
N         59.45249       28.80176       79.72649
C         60.66136       28.76066       78.89984
C         60.33621       28.88893       77.40550
O         61.26538       28.90178       76.60972
C         61.51652       27.49770       79.20227
C         60.82354       26.17774       78.99249
O         61.46064       25.13793       79.04012
O         59.50096       26.14299       78.77277
H         58.73093       28.09208       79.57621
H         61.31802       29.62569       79.14115
H         61.88384       27.53097       80.25091
H         62.40952       27.53267       78.53917
N         59.05884       29.06348       76.95262
C         58.72747       29.37486       75.56984
C         58.92347       28.27739       74.53429
O         58.68593       28.58415       73.37395
H         58.28387       29.11128       77.62455
H         59.31998       30.26523       75.26669
H         57.65502       29.66595       75.52368
N         59.33094       27.00192       74.81973
C         59.54093       26.00633       73.75292
C         58.27262       25.62604       72.97898
O         58.39604       24.93332       71.97924
C         60.27708       24.74883       74.27533
C         59.56965       23.96921       75.34541
O         60.16244       23.07060       75.92008
O         58.34641       24.31472       75.76579
H         59.54457       26.75216       75.79655
H         60.23482       26.47063       73.01736
H         61.23922       25.09624       74.71094
H         60.51086       24.06285       73.43392
N         57.03482       26.04512       73.36462
C         55.80652       25.78871       72.62512
C         54.80788       24.96648       73.41353
O         53.68061       24.83906       72.95369
H         56.94440       26.59373       74.22062
H         55.99594       25.27060       71.66067
H         55.34960       26.77478       72.39287
N         55.15293       24.32885       74.56854
C         54.24558       23.48592       75.33828
C         54.24745       23.86705       76.80982
O         55.03324       24.70404       77.23548
C         54.62619       21.99397       75.15942
C         54.26018       21.47464       73.76176
O         55.98850       21.78002       75.43820
H         56.12272       24.39029       74.89606
H         53.19819       23.62091       74.98572
H         54.03389       21.37148       75.86293
H         56.51897       22.08686       74.65568
H         54.52577       20.39935       73.68152
H         53.16451       21.57406       73.60159
H         54.79141       22.03837       72.96739
N         53.32473       23.30264       77.63632
C         53.15534       23.62475       79.04784
C         53.22047       22.32749       79.84416
O         52.53516       21.37668       79.48815
C         51.79213       24.35389       79.24178
C         51.74734       25.63728       78.36618
C         51.57682       24.71510       80.72719
C         50.37415       26.30558       78.31059
H         52.64623       22.64187       77.22378
H         53.94776       24.32368       79.40083
H         50.98042       23.66868       78.91066
H         51.99425       25.38674       77.31373
H         52.50212       26.36373       78.73436
H         52.37642       25.40286       81.08067
H         50.59530       25.20166       80.88946
H         51.58640       23.80681       81.36065
H         50.42568       27.18585       77.63467
H         49.62571       25.59392       77.90088
H         50.04341       26.66165       79.30507
N         53.98375       22.23552       80.96763
C         54.08579       21.02959       81.78599
C         53.21079       21.16612       83.01705
O         52.60734       22.20681       83.21154
C         55.56424       20.79015       82.20504
C         56.48650       20.61940       81.00005
O         56.01434       21.87500       82.97237
H         54.45123       23.08409       81.30517
H         53.71298       20.14643       81.22203
H         55.61551       19.86225       82.81852
H         56.85104       21.59185       83.42537
H         56.16808       19.75248       80.38636
H         56.47575       21.54172       80.38624
H         57.52826       20.44568       81.34824
N         53.08482       20.13821       83.89721
C         52.33935       20.25033       85.15078
C         52.97723       21.30151       86.04759
O         52.26970       22.13969       86.58741
C         52.26180       18.89230       85.89429
C         51.41935       17.86446       85.11707
O         53.54069       18.39079       86.20817
H         53.56084       19.25292       83.67173
H         51.28744       20.55204       84.94145
H         51.72487       19.05554       86.85471
H         53.88410       17.87981       85.42990
H         51.34460       16.92116       85.69753
H         50.39187       18.25850       84.95964
H         51.86486       17.63912       84.12582
N         54.33016       21.33115       86.20346
C         55.05093       22.30108       87.02777
C         54.70143       23.72462       86.62779
O         54.30898       24.50963       87.47961
C         56.57944       22.10434       86.86633
C         57.07433       20.73705       87.36921
C         58.57171       20.56202       87.07129
C         59.12021       19.19648       87.51844
N         59.09344       19.03543       88.97302
H         54.87540       20.64197       85.66672
H         54.78550       22.15630       88.09866
H         57.11495       22.89472       87.43837
H         56.84673       22.21934       85.79351
H         56.53620       19.90955       86.86393
H         56.87396       20.67420       88.45836
H         59.15953       21.37364       87.55194
H         58.71613       20.63549       85.97004
H         60.17476       19.11907       87.17238
H         58.54320       18.37656       87.03500
H         59.62926       19.80949       89.42882
H         58.11206       19.02147       89.32913
H         59.54264       18.12460       89.22095
N         54.82860       24.11556       85.33255
C         54.56990       25.46762       84.84615
C         53.13250       25.86484       85.15051
O         52.92421       26.86124       85.82897
C         54.90972       25.55452       83.33323
C         56.41940       25.28657       83.09416
C         56.83053       25.27036       81.64689
O         57.84930       26.04157       81.22885
O         56.31727       24.49346       80.86174
H         55.11977       23.39687       84.66031
H         55.24238       26.18294       85.37121
H         54.66268       26.56348       82.95120
H         54.29119       24.81797       82.78005
H         56.70676       24.30188       83.50351
H         57.01387       26.05603       83.63228
N         52.09183       25.09722       84.73346
C         50.71649       25.38158       85.08144
H         50.05191       24.59192       84.66776
H         50.59930       25.38634       86.18705
H         50.40943       26.36371       84.66760
H         52.28365       24.25997       84.18082
Ca        58.26806       24.48569       77.96783
O         59.44087       22.83207       80.31425
H         60.22377       22.34323       79.95555
H         59.81288       23.68393       80.65438
O         57.62364       21.73179       78.16908
H         58.43745       21.46881       77.67213
H         56.88181       21.26333       77.71385

Ca 1.0



