%chk=holoCaM-CaMKII.loop3.water2.frame105.chk
%nprocshared=20
%mem=10GB
%nosave
#b3lyp/svp scf=(tight,noincore,xqc) Test 
#IOP(5/87=12) Density=Current Pop=(MK,readradii) iop(6/33=2) iop(6/42=6)

holoCaM-CaMKII.loop3.water2.frame105 

   0  1 
C         42.85260       23.19419       51.82705
C         43.58272       22.36563       52.83789
O         44.03975       21.28778       52.49982
H         41.81852       23.38758       52.18280
H         43.38246       24.15787       51.68478
H         42.79738       22.66360       50.85163
N         43.69834       22.79700       54.12270
C         44.35351       22.02978       55.17275
C         43.28096       21.49371       56.10415
O         43.22598       21.83813       57.27656
C         45.44046       22.89819       55.83093
C         46.17808       22.17462       56.91599
O         46.19461       22.69166       58.15592
O         46.77582       21.13572       56.68119
H         43.25925       23.69401       54.38172
H         44.86644       21.14105       54.75995
H         44.98629       23.82252       56.24637
H         46.18231       23.19328       55.06033
N         42.38278       20.60281       55.59232
C         41.26971       20.00606       56.32961
C         41.66900       19.14013       57.52500
O         40.76302       18.71168       58.22743
C         40.37491       19.17000       55.37778
C         41.11847       17.99436       54.70799
C         40.16521       17.14234       53.86160
C         40.90288       16.10863       52.99076
N         41.71733       15.17766       53.77330
H         42.48163       20.37877       54.59298
H         40.64915       20.84202       56.72259
H         39.97172       19.83568       54.58285
H         39.50826       18.77902       55.95522
H         41.58438       17.35152       55.48416
H         41.91690       18.38345       54.04496
H         39.59903       17.80306       53.16938
H         39.43680       16.63452       54.53154
H         41.55345       16.63921       52.25994
H         40.14235       15.53525       52.41596
H         42.13041       14.46804       53.12581
H         42.50597       15.68108       54.23904
H         41.12925       14.68850       54.48563
N         42.96474       18.85531       57.84629
C         43.33459       18.10906       59.04832
C         43.90832       19.06511       60.06817
O         43.40057       19.09174       61.18109
C         44.25207       16.90235       58.76847
C         45.55348       17.20834       58.09209
O         46.61591       16.97040       58.64304
O         45.53375       17.57636       56.80560
H         43.72037       19.23426       57.26321
H         42.43304       17.65787       59.52130
H         43.70943       16.17351       58.12604
H         44.45734       16.39846       59.73829
N         44.90169       19.94026       59.74344
C         45.36901       20.96653       60.66071
C         46.86223       20.95262       60.88200
O         47.32277       21.81520       61.61737
H         45.28346       19.94042       58.78673
H         44.87737       20.88194       61.65349
H         45.08459       21.95401       60.24576
N         47.69226       20.02009       60.32534
C         49.11956       19.99656       60.63393
C         49.88452       21.22457       60.13136
O         51.00706       21.41220       60.57766
C         49.79177       18.68068       60.17158
C         49.78363       18.41091       58.68463
N         50.41320       17.31511       58.20290
O         49.21330       19.16275       57.91167
H         47.29644       19.27248       59.73928
H         49.19725       19.99921       61.74464
H         49.28310       17.82681       60.67032
H         50.84825       18.69408       60.51559
H         50.89715       16.66485       58.83934
H         50.42563       17.11964       57.19155
N         49.36862       22.08620       59.20342
C         50.06119       23.29080       58.74789
C         50.55905       23.19153       57.31467
O         51.15165       24.14983       56.83770
H         48.45699       21.87766       58.77970
H         50.95166       23.49785       59.37863
H         49.37148       24.15522       58.85604
N         50.41276       22.04900       56.59179
C         50.97993       21.80142       55.27248
C         49.87860       21.39058       54.30879
O         49.05842       20.55477       54.66943
C         51.98012       20.63523       55.40003
C         53.17959       20.96970       56.25801
C         54.16587       21.85828       55.79331
C         53.34051       20.36856       57.51796
C         55.30045       22.12468       56.56933
C         54.46714       20.64800       58.29760
C         55.45475       21.51789       57.82459
O         56.54660       21.75611       58.58002
H         49.91910       21.25927       57.01947
H         51.52378       22.68551       54.86939
H         52.35188       20.32318       54.39929
H         51.43724       19.76795       55.83569
H         54.06968       22.32578       54.82122
H         52.59308       19.68486       57.89983
H         56.06240       22.79588       56.19192
H         54.57728       20.17910       59.26733
H         57.26494       22.33281       58.28275
N         49.85685       21.86269       53.02954
C         48.87679       21.43454       52.03318
C         49.55845       20.49855       51.04890
O         50.60502       20.84521       50.51588
C         48.24873       22.64608       51.28105
C         47.63308       23.66570       52.26889
C         47.17808       22.13919       50.28538
C         47.10085       24.92881       51.58344
H         50.61373       22.49493       52.72289
H         48.04020       20.88629       52.52291
H         49.05501       23.16113       50.71218
H         48.41704       23.99578       52.98342
H         46.81145       23.18782       52.84117
H         46.35532       21.62433       50.82823
H         46.74985       22.96076       49.68086
H         47.61561       21.42965       49.55743
H         46.24712       24.70466       50.91304
H         46.73690       25.64248       52.35113
H         47.90870       25.41841       50.99815
N         48.97027       19.31552       50.71432
C         49.51903       18.37161       49.74733
C         48.69717       18.38708       48.46843
O         47.71874       19.11225       48.39495
C         49.54986       16.96438       50.37094
O         48.24696       16.54107       50.66280
H         48.05001       19.10109       51.11997
H         50.55618       18.66082       49.47220
H         50.15217       16.99905       51.30631
H         50.01389       16.24384       49.66430
H         48.32786       15.67962       51.14801
N         49.06414       17.63565       47.39506
C         48.31925       17.60788       46.13734
C         46.94603       16.98842       46.32224
O         45.96346       17.58766       45.91178
C         49.09173       16.81595       45.08134
H         49.92714       17.07443       47.46967
H         48.21682       18.64430       45.74098
H         48.53471       16.82769       44.11945
H         50.08206       17.29077       44.91347
H         49.24433       15.76399       45.40083
N         46.81236       15.78685       46.95514
C         45.52903       15.12836       47.19966
C         44.56387       16.06468       47.89777
O         43.43484       16.20322       47.44760
C         45.74295       13.86899       48.04845
H         47.66855       15.33901       47.31700
H         45.08102       14.81078       46.23201
H         44.77498       13.35197       48.22201
H         46.42227       13.16754       47.51835
H         46.19403       14.12624       49.03136
N         44.98115       16.80450       48.95931
C         44.15675       17.80950       49.62386
C         43.61946       18.81725       48.62201
O         42.41211       19.00252       48.56328
C         44.98165       18.54257       50.69705
C         45.35548       17.61192       51.85376
C         46.16250       18.31239       52.89843
O         47.36872       17.84570       53.26606
O         45.67078       19.23352       53.52351
H         45.95883       16.68399       49.26266
H         43.28880       17.31994       50.12140
H         44.37297       19.37039       51.10255
H         45.89440       18.97571       50.23870
H         45.91912       16.73121       51.49792
H         44.42369       17.24127       52.33503
N         44.46046       19.48169       47.78462
C         44.02447       20.43662       46.78864
H         42.92885       20.60836       46.81788
H         44.54095       21.40375       46.96011
H         44.29624       20.05990       45.77977
H         45.46321       19.28400       47.83140
Ca        47.32663       17.58729       55.47139
O         48.69519       15.15168       56.58337
H         48.56525       14.82586       55.65767
H         47.79451       15.10672       56.99139
O         50.32578       17.66297       54.45711
H         50.29462       16.67404       54.48707
H         51.22423       17.87260       54.09842

Ca 1.0



