%chk=holoCaM.loop3.water3.frame473.chk
%nprocshared=20
%mem=10GB
%nosave
#b3lyp/svp scf=(tight,noincore,xqc) Test 
#IOP(5/87=12) Density=Current Pop=(MK,readradii) iop(6/33=2) iop(6/42=6)

holoCaM.loop3.water3.frame473 

   0  1 
C         32.22246       47.51040       70.14694
C         33.06693       46.70756       71.08675
O         33.75352       45.80022       70.63759
H         31.64789       48.29126       70.68846
H         32.87605       48.00797       69.40004
H         31.51013       46.83836       69.62684
N         33.09321       47.00628       72.41375
C         33.93989       46.28820       73.34888
C         33.43851       44.85766       73.52934
O         32.32487       44.67038       73.99943
C         33.99416       47.05254       74.68528
C         35.02829       46.50808       75.60898
O         35.68763       45.53619       75.29889
O         35.24894       47.11061       76.78290
H         32.53866       47.80780       72.75352
H         34.97262       46.29618       72.93201
H         33.00140       47.04807       75.18458
H         34.27955       48.10690       74.48295
N         34.20186       43.80037       73.12930
C         33.73780       42.41248       73.17492
C         33.62719       41.85709       74.59084
O         32.94990       40.85477       74.77132
C         34.66768       41.50062       72.34150
C         34.67453       41.92294       70.86275
C         35.53787       40.99425       70.00210
C         35.54491       41.41023       68.51932
N         34.21153       41.34966       67.91434
H         35.11572       44.00323       72.70517
H         32.72677       42.37950       72.71052
H         34.29804       40.45303       72.40167
H         35.70174       41.53162       72.75456
H         35.06096       42.95785       70.75080
H         33.62542       41.89205       70.50632
H         35.16794       39.94969       70.08813
H         36.58486       41.02365       70.37605
H         36.21989       40.71699       67.97093
H         35.95224       42.43961       68.41449
H         34.29400       41.53589       66.88932
H         33.79197       40.40194       68.05412
H         33.58549       42.08177       68.31841
N         34.32581       42.40726       75.62141
C         34.31006       41.90630       76.99829
C         33.89862       42.97344       78.01159
O         33.81415       42.64716       79.18821
C         35.68603       41.30065       77.37351
C         36.86835       42.24108       77.26298
O         37.97658       41.83905       77.57131
O         36.71097       43.49265       76.77886
H         34.93015       43.19907       75.39534
H         33.56697       41.08283       77.09380
H         35.87720       40.42801       76.71060
H         35.62762       40.91426       78.41565
N         33.59573       44.25180       77.64467
C         33.11586       45.25473       78.58079
C         34.10648       45.72386       79.63752
O         33.67173       46.50223       80.47525
H         33.61409       44.51572       76.65310
H         32.21755       44.84405       79.09200
H         32.79077       46.15314       78.01195
N         35.41933       45.33037       79.70331
C         36.28422       45.76027       80.81402
C         36.56896       47.26619       80.82357
O         37.17464       47.74005       81.77446
C         37.61656       44.96561       80.86280
C         38.65447       45.44138       79.88065
N         39.87579       45.86116       80.29136
O         38.38932       45.44885       78.69936
H         35.78613       44.67102       79.00304
H         35.73854       45.48788       81.74344
H         37.40595       43.88749       80.69246
H         38.04771       45.06474       81.88062
H         40.13313       45.85542       81.28843
H         40.57565       46.18658       79.60674
N         36.21131       48.06208       79.77595
C         36.49416       49.47954       79.67435
C         37.42502       49.78845       78.51548
O         37.62966       50.96791       78.26427
H         35.72580       47.65249       78.97757
H         36.95711       49.88057       80.60219
H         35.52908       50.01028       79.52197
N         38.08190       48.80693       77.81139
C         39.05666       49.10059       76.76580
C         38.73626       48.32519       75.45214
O         39.31698       47.03652       75.49399
C         40.49406       48.76955       77.23631
C         40.97825       49.59646       78.40300
C         40.41573       49.46106       79.68546
C         42.03807       50.49942       78.21578
C         40.89904       50.22263       80.75318
C         42.52027       51.25775       79.28369
C         41.95203       51.12195       80.55731
O         42.41349       51.84404       81.59764
H         37.94854       47.82116       78.06550
H         39.02703       50.18802       76.53501
H         41.16612       48.94651       76.36799
H         40.58010       47.69700       77.51142
H         39.61333       48.76070       79.87078
H         42.49504       50.61778       77.24102
H         40.45858       50.10773       81.73564
H         43.33817       51.94726       79.11868
H         43.14653       52.46900       81.50277
N         39.34171       49.04197       74.31170
C         39.12292       48.39270       73.00526
C         40.48011       48.31396       72.32284
O         41.00934       49.33463       71.90547
C         38.06019       49.14273       72.13533
C         36.71989       49.29061       72.90461
C         37.84444       48.40682       70.80004
C         35.64632       50.07183       72.14194
H         39.12567       50.06563       74.28783
H         38.75385       47.35419       73.16063
H         38.44700       50.16237       71.91339
H         36.89577       49.84519       73.84952
H         36.32465       48.28770       73.16438
H         37.17267       48.97570       70.12745
H         38.80057       48.28388       70.25189
H         37.39631       47.41098       70.98887
H         34.74935       50.18992       72.78561
H         36.02329       51.08113       71.87088
H         35.32579       49.53628       71.22588
N         41.13622       47.12149       72.25410
C         42.46561       46.94883       71.67183
C         42.42668       47.04123       70.15598
O         41.36329       47.25495       69.59652
C         43.02401       45.56883       72.08275
O         42.23733       44.53449       71.54771
H         40.69123       46.30926       72.69928
H         43.15378       47.71676       72.08931
H         43.06627       45.51551       73.19624
H         44.06761       45.43384       71.73230
H         41.88309       44.00622       72.30864
N         43.55389       46.83446       69.41982
C         43.55471       46.70177       67.96583
C         42.75531       45.47398       67.54680
O         41.89521       45.59180       66.68656
C         44.98902       46.56994       67.44533
H         44.44877       46.71355       69.91978
H         43.12647       47.61801       67.49897
H         45.57169       47.47436       67.72257
H         45.49038       45.67522       67.87122
H         44.98408       46.48727       66.33688
N         42.97505       44.26232       68.14809
C         42.25086       43.02960       67.81008
C         40.73956       43.09715       68.04758
O         40.05510       42.14102       67.70663
C         42.82356       41.85604       68.61688
H         43.70591       44.21480       68.87428
H         42.41996       42.82208       66.73082
H         43.91196       41.75339       68.42174
H         42.66852       42.02433       69.70509
H         42.33022       40.90290       68.32881
N         40.14502       44.19467       68.58498
C         38.71130       44.37580       68.74287
C         38.23445       45.35001       67.67748
O         37.30676       45.01950       66.95242
C         38.41527       44.88294       70.16608
C         38.70832       43.81268       71.22695
C         38.53292       44.36433       72.61303
O         37.36465       44.91352       72.98459
O         39.45188       44.31624       73.41364
H         40.72743       44.98568       68.86858
H         38.15260       43.42627       68.58783
H         37.34017       45.15727       70.24445
H         39.03272       45.78593       70.36316
H         39.74637       43.43352       71.11739
H         38.00888       42.96174       71.08378
N         38.86448       46.54001       67.47274
C         38.49660       47.44477       66.40697
H         37.46578       47.82087       66.56478
H         39.19843       48.30703       66.38745
H         38.56402       46.92358       65.42737
H         39.66357       46.80048       68.05544
Ca        38.11316       45.20635       76.18457
O         38.94958       41.78816       74.65881
H         38.54640       41.59574       73.77534
H         38.79748       40.96419       75.18467
O         40.38350       43.37980       78.07539
H         41.04392       42.69951       78.35731
H         40.11243       43.10126       77.16493
O         41.46272       45.16756       75.89233
H         41.59787       45.54635       76.79712
H         41.71161       45.90183       75.27724

Ca 1.0



