%chk=holoCaM.loop4.water3.frame417.chk
%nprocshared=20
%mem=10GB
%nosave
#b3lyp/svp scf=(tight,noincore,xqc) Test 
#IOP(5/87=12) Density=Current Pop=(MK,readradii) iop(6/33=2) iop(6/42=6)

holoCaM.loop4.water3.frame417 

   -3  1 
C         -0.84982       78.22148       56.56348
C         -1.47699       77.88352       57.88143
O         -1.93751       78.78729       58.55988
H          0.20846       77.89368       56.54996
H         -1.40878       77.71090       55.75043
H         -0.89353       79.31764       56.37962
N         -1.58438       76.58444       58.28201
C         -2.30527       76.18652       59.48513
C         -1.50375       75.16824       60.29924
O         -1.10947       74.15447       59.73961
C         -3.64893       75.58020       59.03931
C         -4.63405       75.44804       60.16256
O         -5.72172       74.93685       59.95342
O         -4.36732       75.96812       61.37477
H         -1.24044       75.84675       57.64797
H         -2.53588       77.08321       60.10159
H         -3.47094       74.59629       58.55379
H         -4.12771       76.25191       58.29323
N         -1.26556       75.35114       61.63320
C         -0.52788       74.39695       62.47470
C         -1.39775       73.76464       63.57351
O         -0.87761       72.94632       64.31977
C          0.71969       75.08858       63.11692
C          0.32106       76.21797       64.11158
C          1.66395       75.60295       62.01708
C          1.49936       76.82372       64.87563
H         -1.63737       76.20007       62.07347
H         -0.16257       73.54956       61.85423
H          1.27207       74.31073       63.69103
H         -0.37009       75.80397       64.87588
H         -0.19881       77.03801       63.58198
H          1.93931       74.77210       61.33389
H          1.18087       76.40928       61.42581
H          2.60668       75.99402       62.44944
H          2.20177       77.34270       64.19336
H          1.11734       77.57758       65.59717
H          2.03977       76.03599       65.44175
N         -2.70222       74.11709       63.76183
C         -3.48563       73.71733       64.93916
C         -5.00313       73.58620       64.68500
O         -5.70455       73.22469       65.62026
C         -3.24353       74.73824       66.08290
C         -3.66586       76.13102       65.70369
O         -4.10006       76.36604       64.45328
O         -3.65033       77.02890       66.52933
H         -3.07082       74.84047       63.14576
H         -3.13416       72.72495       65.29723
H         -2.17088       74.75675       66.36875
H         -3.82648       74.42061       66.97600
N         -5.58907       73.84997       63.47898
C         -7.01519       73.68672       63.21730
C         -7.96904       74.64317       63.93514
O         -9.16490       74.43106       63.79075
H         -5.00592       74.09588       62.67683
H         -7.29106       72.64259       63.47909
H         -7.19671       73.81270       62.12733
N         -7.56324       75.69056       64.71798
C         -8.50396       76.52086       65.48974
C         -9.42384       77.44457       64.66683
O        -10.17166       78.19178       65.28287
C         -7.76770       77.28586       66.62711
C         -6.88761       78.44788       66.25644
O         -6.81850       78.91763       65.00713
O         -6.23507       79.00027       67.12619
H         -6.55583       75.84197       64.85170
H         -9.16452       75.82099       66.04974
H         -7.14854       76.54388       67.17777
H         -8.52113       77.68418       67.34049
N         -9.47886       77.42862       63.29967
C        -10.38924       78.26563       62.51910
C         -9.97648       79.72929       62.40661
O        -10.71820       80.49135       61.80539
H         -8.92457       76.74219       62.78109
H        -11.41384       78.18117       62.94392
H        -10.43083       77.87678       61.47865
N         -8.80806       80.18702       62.93612
C         -8.33532       81.56982       62.87446
C         -6.92846       81.62752       62.27550
O         -6.38222       80.59145       61.92876
C         -8.27252       82.16605       64.29773
C         -9.58455       82.04728       65.07974
C         -9.48040       82.83563       66.36126
N         -9.50014       82.22217       67.56636
O         -9.36639       84.05168       66.30650
H         -8.21742       79.51713       63.41361
H         -9.02761       82.19210       62.26643
H         -8.01324       83.24198       64.21042
H         -7.47477       81.66270       64.88944
H         -9.77505       80.97288       65.29232
H        -10.43727       82.44476       64.48885
H         -9.57561       81.19780       67.63993
H         -9.41908       82.77749       68.43148
N         -6.25939       82.81847       62.18556
C         -4.87070       82.94149       61.74528
C         -4.03962       83.49616       62.89915
O         -4.41369       84.51210       63.46745
C         -4.75527       83.87107       60.50618
C         -3.30894       83.87920       59.97229
C         -5.69464       83.42894       59.37595
H         -6.73902       83.68350       62.47171
H         -4.46850       81.95096       61.44377
H         -5.03910       84.90745       60.79502
H         -2.60257       84.24113       60.74250
H         -2.99834       82.85577       59.66474
H         -3.21862       84.55348       59.09520
H         -5.46084       82.39359       59.04846
H         -6.75252       83.47443       59.70860
H         -5.58791       84.11412       58.50711
N         -2.86221       82.90541       63.25357
C         -1.98126       83.41262       64.30620
C         -0.88707       84.26959       63.69603
O         -0.78572       84.35048       62.48771
C         -1.39439       82.19554       65.06444
C         -0.48303       82.47564       66.22848
N         -0.93396       83.13845       67.31585
O          0.66437       82.05615       66.20989
H         -2.53076       82.11390       62.68873
H         -2.55897       84.05928       65.00158
H         -0.85005       81.55894       64.33290
H         -2.22837       81.61815       65.47906
H         -1.90449       83.47884       67.36045
H         -0.31283       83.29390       68.12228
N         -0.05068       84.98346       64.49095
C          1.06917       85.77828       63.99016
C          2.09619       84.88684       63.29889
O          2.47273       85.18741       62.17437
C          1.63752       86.68015       65.11979
C          1.95048       85.99172       66.43151
C          1.03957       86.09598       67.50120
C          3.13061       85.25977       66.61432
C          1.28983       85.45638       68.71496
C          3.38672       84.62857       67.83911
C          2.46075       84.71734       68.88907
O          2.68317       84.09881       70.06604
H         -0.23432       84.96207       65.49989
H          0.69816       86.50221       63.22817
H          0.82391       87.41154       65.32444
H          2.50213       87.28691       64.77383
H          0.11843       86.65501       67.38866
H          3.85099       85.18455       65.81173
H          0.56627       85.53002       69.51744
H          4.30148       84.06595       67.97148
H          3.47577       83.56832       70.22805
N          2.52797       83.73135       63.87646
C          3.45556       82.79358       63.23916
C          2.92530       82.30962       61.89827
O          3.64114       82.39518       60.91041
C          3.70005       81.55553       64.13992
C          4.38800       81.87698       65.47672
C          5.75184       82.47961       65.28163
O          6.02759       83.70566       65.76417
O          6.61922       81.85730       64.68982
H          2.14428       83.49409       64.79944
H          4.43315       83.29499       63.06556
H          4.34280       80.82881       63.59468
H          2.73049       81.05217       64.35102
H          4.50030       80.93759       66.05889
H          3.75265       82.55723       66.07216
N          1.67147       81.79021       61.79826
C          1.10304       81.25765       60.55956
C          1.13815       82.28837       59.44173
O          1.67012       81.99593       58.38008
C         -0.36005       80.82319       60.78254
C         -0.51715       79.66190       61.78564
C         -1.96101       79.31553       62.04256
O         -2.26557       78.38178       62.95942
O         -2.86479       79.88578       61.45432
H          1.09444       81.79170       62.65163
H          1.68477       80.36554       60.23408
H         -0.78665       80.50713       59.81139
H         -0.93743       81.70154       61.13600
H         -0.07109       79.93366       62.76116
H          0.00983       78.76077       61.40419
N          0.58398       83.51651       59.62024
C          0.52992       84.54845       58.60846
H         -0.52921       84.84641       58.45563
H          1.10023       85.43464       58.95783
H          0.94514       84.21065       57.63730
H          0.18311       83.74115       60.53030
Ca        -5.18958       78.13355       63.77088
O         -6.96232       77.56378       61.54357
H         -6.94975       76.57888       61.63623
H         -7.64624       77.74247       60.85104
O         -5.08582       78.80392       59.97868
H         -4.35446       78.89658       59.32218
H         -5.86673       79.22385       59.53932
O         -3.79096       79.97223       65.05477
H         -3.34928       79.50687       65.80800
H         -4.51292       80.50454       65.47175

Ca 1.0



