%chk=holoCaM-CaMKII.loop1.water2.frame429.chk
%nprocshared=20
%mem=10GB
%nosave
#b3lyp/svp scf=(tight,noincore,xqc) Test 
#IOP(5/87=12) Density=Current Pop=(MK,readradii) iop(6/33=2) iop(6/42=6)

holoCaM-CaMKII.loop1.water2.frame429 

   0  1 
C         82.73677       72.96230       29.36244
C         84.17490       73.39124       29.38945
O         84.93852       72.80310       30.13246
H         82.14314       73.56542       28.64383
H         82.67221       71.89447       29.06627
H         82.29504       73.08749       30.37210
N         84.61116       74.39501       28.57819
C         85.98468       74.90374       28.51112
C         86.32154       75.70629       29.78627
O         86.31276       76.92830       29.72933
C         86.07859       75.79754       27.23939
C         87.41707       76.38898       26.85025
O         88.59240       76.07505       27.43938
O         87.42990       77.18955       25.92963
H         83.91498       74.80184       27.93357
H         86.66822       74.05044       28.34972
H         85.36995       76.64427       27.37352
H         85.72933       75.21075       26.36086
N         86.57359       75.09906       30.98761
C         86.71867       75.84952       32.23905
C         87.96186       76.73371       32.31625
O         88.01758       77.53117       33.24314
C         86.74606       74.90732       33.46937
C         85.47244       74.07838       33.72216
C         84.23674       74.95532       33.99638
C         83.05371       74.16755       34.58776
N         82.56335       73.11758       33.69585
H         86.60373       74.07556       31.03287
H         85.83771       76.52097       32.32835
H         86.91210       75.51348       34.38811
H         87.60980       74.21323       33.36878
H         85.67515       73.46934       34.63055
H         85.27694       73.38365       32.87953
H         83.92084       75.47050       33.06409
H         84.50526       75.72794       34.74970
H         82.22691       74.88392       34.79254
H         83.35791       73.71690       35.55887
H         83.29708       72.38958       33.54411
H         81.73709       72.65786       34.14304
H         82.26782       73.53098       32.78314
N         89.00363       76.64437       31.43876
C         90.19690       77.48963       31.53500
C         90.36109       78.39748       30.31830
O         91.32330       79.15188       30.27859
C         91.44788       76.63738       31.85609
C         91.89462       75.65479       30.80976
O         91.32543       75.55968       29.73720
O         92.96243       74.87452       31.06276
H         88.96286       75.94692       30.68832
H         90.10493       78.18310       32.39921
H         91.24246       76.07282       32.79243
H         92.30249       77.31905       32.05784
N         89.41358       78.45196       29.33568
C         89.41944       79.43111       28.26206
C         90.47129       79.23320       27.19406
O         90.50753       80.06094       26.29389
H         88.58014       77.85831       29.40076
H         89.52300       80.44501       28.70646
H         88.43564       79.39317       27.74530
N         91.34921       78.18768       27.18815
C         92.36355       78.04492       26.14284
C         91.77973       77.84353       24.74245
O         92.52808       77.97964       23.78470
C         93.38591       76.93973       26.49221
C         92.82064       75.55255       26.66629
O         91.62688       75.32689       26.55560
O         93.65474       74.54496       26.98032
H         91.32384       77.50571       27.95739
H         92.93153       79.00203       26.11752
H         93.88267       77.21671       27.44670
H         94.16463       76.90622       25.69995
N         90.46992       77.52069       24.54065
C         89.85132       77.42296       23.22575
C         89.42781       76.01559       22.87353
O         88.75212       75.85764       21.86612
H         89.86706       77.33715       25.35173
H         90.52475       77.77852       22.41666
H         88.95715       78.08283       23.22882
N         89.83218       74.93856       23.60540
C         89.48825       73.56247       23.26992
C         88.83046       72.86139       24.44676
O         88.79989       73.39489       25.54817
C         90.77043       72.79655       22.83191
C         91.28390       73.31438       21.48685
O         91.80443       72.93591       23.77482
H         90.45274       75.08450       24.41046
H         88.75352       73.53278       22.43499
H         90.54624       71.71608       22.68823
H         91.43095       72.72408       24.66630
H         90.51008       73.17526       20.70211
H         91.55057       74.39037       21.54923
H         92.18970       72.74466       21.18665
N         88.26023       71.64000       24.25265
C         87.64346       70.83831       25.30152
C         88.30748       69.46921       25.28652
O         88.35372       68.83946       24.23789
C         86.10241       70.74955       25.08573
C         85.48990       72.17827       25.12849
C         85.46138       69.85374       26.16861
C         83.98168       72.22906       24.87646
H         88.24606       71.25775       23.29351
H         87.79130       71.30730       26.29953
H         85.89995       70.29730       24.08942
H         85.96527       72.80171       24.34185
H         85.69890       72.64810       26.11501
H         85.63069       70.27924       27.18133
H         84.37193       69.73606       26.00630
H         85.88507       68.83080       26.13546
H         83.64722       73.28834       24.87740
H         83.73985       71.78009       23.89034
H         83.41577       71.70679       25.67378
N         88.80294       68.92978       26.43401
C         89.43134       67.61430       26.50961
C         88.44518       66.61704       27.07463
O         87.31879       66.98607       27.35792
C         90.72324       67.67126       27.36928
C         91.77233       68.61757       26.77691
O         90.43007       68.00347       28.70689
H         88.64688       69.43678       27.31186
H         89.69817       67.25051       25.49266
H         91.19789       66.66817       27.38230
H         90.34943       68.98899       28.77898
H         91.37159       69.64966       26.73436
H         92.68525       68.61015       27.41056
H         92.04821       68.29237       25.75178
N         88.78964       65.31312       27.23623
C         87.86404       64.31336       27.75394
C         87.42042       64.67085       29.16575
O         86.22295       64.70019       29.41360
C         88.51045       62.90737       27.71615
C         87.52067       61.81786       28.14171
O         88.92615       62.61908       26.40323
H         89.73944       65.02004       26.96474
H         86.97261       64.27437       27.08574
H         89.37868       62.87535       28.41790
H         89.91436       62.71006       26.37343
H         87.17154       61.97734       29.18290
H         86.63976       61.81404       27.46299
H         88.01116       60.82340       28.08694
N         88.33534       64.95467       30.13991
C         87.96544       65.21054       31.53155
C         86.98101       66.36084       31.63754
O         85.93627       66.20220       32.25300
C         89.21196       65.51505       32.40556
C         88.90981       65.22081       33.89037
C         90.07699       65.52077       34.84482
C         90.15560       67.00513       35.23337
N         91.23842       67.23586       36.19174
H         89.33406       64.96335       29.88197
H         87.49775       64.27649       31.91651
H         89.56064       66.55782       32.23547
H         90.04184       64.83122       32.12237
H         88.71366       64.12711       33.94571
H         87.99642       65.74373       34.24734
H         91.03498       65.15567       34.41295
H         89.89211       64.95914       35.78635
H         89.19125       67.29321       35.71155
H         90.30654       67.64471       34.33811
H         92.16230       67.05529       35.73707
H         91.20596       68.22927       36.51665
H         91.12961       66.61159       37.02490
N         87.24944       67.54254       31.01448
C         86.36145       68.70112       31.04588
C         84.96627       68.32719       30.56858
O         84.01477       68.52459       31.31173
C         86.93720       69.84277       30.18107
C         88.26006       70.40235       30.74236
C         88.74561       71.53305       29.88871
O         88.85394       72.77195       30.39079
O         89.00538       71.35005       28.71230
H         88.12020       67.60078       30.46514
H         86.27624       69.07386       32.09118
H         86.20129       70.67079       30.15591
H         87.08336       69.48398       29.13863
H         89.04792       69.62374       30.77969
H         88.08598       70.77696       31.77382
N         84.77233       67.75081       29.35410
C         83.46949       67.33335       28.88620
H         82.79570       68.21078       28.79934
H         83.56380       66.85224       27.88870
H         83.03387       66.59337       29.59159
H         85.57936       67.57705       28.75152
Ca        88.99583       74.32447       28.78441
O         92.30013       72.02462       29.63361
H         93.08141       71.58481       30.05379
H         92.66357       72.86426       29.25518
O         92.80144       71.78304       26.61430
H         92.88134       71.26208       25.77637
H         93.68925       71.69591       27.04129

Ca 1.0



