%chk=holoCaM.loop4.water3.frame393.chk
%nprocshared=20
%mem=10GB
%nosave
#b3lyp/svp scf=(tight,noincore,xqc) Test 
#IOP(5/87=12) Density=Current Pop=(MK,readradii) iop(6/33=2) iop(6/42=6)

holoCaM.loop4.water3.frame393 

   -3  1 
C         97.29768       45.25970       83.69773
C         96.02746       44.66657       84.21669
O         95.03024       44.73261       83.51075
H         98.07800       44.47342       83.63796
H         97.13955       45.67617       82.67750
H         97.62892       46.07530       84.37014
N         95.99426       44.02931       85.42909
C         94.78563       43.38346       85.92693
C         94.45588       43.78192       87.36001
O         95.36626       43.95898       88.15680
C         94.91785       41.83954       85.80008
C         93.57569       41.17060       85.63163
O         93.49530       39.97044       85.44231
O         92.54393       41.97588       85.35317
H         96.86872       43.93551       85.96672
H         93.95494       43.73081       85.28152
H         95.51426       41.41829       86.63678
H         95.45066       41.61127       84.85068
N         93.15540       43.87334       87.76575
C         92.72624       44.21199       89.12000
C         91.96167       43.02482       89.69642
O         92.40437       42.45976       90.68652
C         91.85048       45.50836       89.09333
C         92.64528       46.69147       88.48072
C         91.32103       45.86105       90.49724
C         91.77725       47.91502       88.16830
H         92.42200       43.68262       87.07714
H         93.60951       44.40471       89.76927
H         90.97083       45.32216       88.44821
H         93.08390       46.37744       87.51244
H         93.48229       46.97869       89.15313
H         90.65229       46.74452       90.46400
H         90.71313       45.02832       90.90868
H         92.16112       46.06958       91.19217
H         90.96169       47.63587       87.46722
H         91.33527       48.35640       89.08247
H         92.40056       48.69411       87.68051
N         90.79341       42.60395       89.12945
C         89.98159       41.51146       89.66567
C         90.42727       40.12966       89.19176
O         89.85375       39.15897       89.66836
C         88.47280       41.76079       89.40471
C         88.13746       42.10148       87.97989
O         88.42483       41.34359       87.07562
O         87.53178       43.27016       87.69558
H         90.44112       43.12217       88.31400
H         90.08326       41.49483       90.77414
H         88.14306       42.61747       90.02963
H         87.88535       40.87150       89.72366
N         91.44696       39.93480       88.30366
C         91.91432       38.59961       87.93734
C         90.92135       37.76056       87.14161
O         91.23562       36.60834       86.87887
H         91.95501       40.74488       87.92252
H         92.18255       38.05644       88.86945
H         92.84281       38.67848       87.34304
N         89.71167       38.24185       86.73552
C         88.70284       37.42900       86.06114
C         89.16188       36.85700       84.72340
O         88.91606       35.68123       84.49430
C         87.34127       38.16277       85.93669
C         87.29670       39.44499       85.15111
O         88.30335       39.95107       84.69212
O         86.11661       40.07312       84.99463
H         89.47184       39.21149       86.95551
H         88.46915       36.56301       86.72226
H         86.97795       38.40125       86.96036
H         86.61572       37.45826       85.47633
N         89.83956       37.60424       83.80402
C         90.26008       37.08575       82.50501
C         89.80405       37.93945       81.33137
O         90.16453       37.60043       80.21209
H         90.11753       38.56287       84.04904
H         89.89725       36.04836       82.34295
H         91.36911       37.05716       82.48852
N         89.04281       39.06078       81.49000
C         88.64346       39.94962       80.40019
C         89.25712       41.32579       80.62334
O         89.96447       41.49131       81.60841
C         87.10290       40.02034       80.33701
C         86.48916       38.62864       80.09239
C         84.98618       38.64523       79.95576
N         84.32365       37.48654       79.73321
O         84.35987       39.69204       80.03957
H         88.73347       39.32881       82.43011
H         89.01819       39.57648       79.42192
H         86.80078       40.69080       79.50447
H         86.70502       40.43772       81.28947
H         86.74900       37.95593       80.93831
H         86.91496       38.20555       79.15722
H         84.83601       36.59500       79.65982
H         83.29789       37.47833       79.63251
N         89.04799       42.36536       79.76022
C         89.64479       43.68468       79.96729
C         88.55451       44.69387       80.26976
O         87.73032       44.98885       79.41440
C         90.50772       44.12531       78.75512
C         91.14107       45.50958       78.99773
C         91.62369       43.10969       78.47284
H         88.43847       42.22706       78.93930
H         90.32818       43.65425       80.84344
H         89.85996       44.18887       77.85283
H         90.36036       46.28279       79.14096
H         91.79357       45.49435       79.89813
H         91.74881       45.81738       78.12109
H         92.30457       43.02115       79.34625
H         91.19757       42.11040       78.24650
H         92.21779       43.43395       77.59155
N         88.50222       45.25375       81.50637
C         87.53898       46.25944       81.92353
C         87.94691       47.61952       81.37079
O         89.01980       47.74272       80.79781
C         87.51952       46.28222       83.47857
C         86.42982       47.10105       84.11686
N         85.12786       46.80961       83.89593
O         86.72359       48.00994       84.87722
H         89.17526       44.92108       82.19886
H         86.53516       45.95295       81.55869
H         88.51142       46.62392       83.84742
H         87.36433       45.24734       83.83963
H         84.85916       46.02882       83.28057
H         84.38578       47.35864       84.35416
N         87.13707       48.69790       81.52848
C         87.53181       50.05824       81.17738
C         88.68054       50.52167       82.07000
O         89.68193       50.99677       81.55431
C         86.35098       51.06577       81.21130
C         85.70708       51.34919       82.55557
C         84.85060       50.42501       83.18513
C         85.93303       52.58920       83.17970
C         84.26794       50.71925       84.41793
C         85.34120       52.88455       84.41080
C         84.51435       51.94906       85.03792
O         83.95931       52.24257       86.23020
H         86.21258       48.52314       81.91773
H         87.86986       50.06591       80.11552
H         85.56320       50.75637       80.49126
H         86.77277       52.01731       80.81610
H         84.59782       49.48141       82.73574
H         86.57362       53.32984       82.71706
H         83.61793       49.99025       84.88522
H         85.53075       53.84121       84.87979
H         83.38744       51.61627       86.69663
N         88.61336       50.36264       83.42595
C         89.68726       50.72733       84.35695
C         90.97563       49.92982       84.13673
O         91.95413       50.22474       84.81033
C         89.24939       50.47232       85.82732
C         87.98229       51.20785       86.29907
C         88.14443       52.70079       86.35812
O         88.02132       53.33938       87.53738
O         88.35552       53.34727       85.34541
H         87.75302       49.95216       83.80460
H         89.92135       51.80295       84.21536
H         90.07554       50.74516       86.52190
H         89.06402       49.38054       85.94184
H         87.75122       50.84605       87.32480
H         87.11435       50.94964       85.66352
N         91.05066       48.89926       83.24539
C         92.23036       48.06514       83.05132
C         92.84499       48.27163       81.67382
O         93.98554       47.86794       81.49186
C         91.81688       46.58783       83.25456
C         91.35422       46.35157       84.70189
C         90.73953       45.00346       84.98495
O         90.50905       44.70666       86.14083
O         90.30158       44.16694       84.02671
H         90.22339       48.64748       82.70159
H         93.02204       48.34510       83.78317
H         92.66695       45.90718       83.03408
H         90.99842       46.36026       82.54088
H         90.61087       47.11160       85.01869
H         92.25785       46.46811       85.33603
N         92.17126       48.89183       80.66105
C         92.74408       49.16207       79.35902
H         93.81582       48.88153       79.29814
H         92.18075       48.60203       78.58401
H         92.65710       50.24908       79.14723
H         91.19710       49.18261       80.78978
Ca        90.61079       41.94632       84.29724
O         92.58354       42.99713       82.14984
H         93.29686       42.33982       81.95526
H         92.76253       43.28761       83.07788
O         87.72382       42.76398       84.26745
H         86.75473       42.62826       84.40985
H         88.02006       43.27066       85.06456
O         92.09412       39.87427       82.80334
H         92.53972       39.91747       81.92157
H         92.46067       39.05973       83.22813

Ca 1.0



