%chk=holoCaM-CaMKII.loop3.water2.frame17.chk
%nprocshared=20
%mem=10GB
%nosave
#b3lyp/svp scf=(tight,noincore,xqc) Test 
#IOP(5/87=12) Density=Current Pop=(MK,readradii) iop(6/33=2) iop(6/42=6)

holoCaM-CaMKII.loop3.water2.frame17 

   0  1 
C         36.30783       53.57453       17.50644
C         35.32476       53.37668       18.62373
O         35.17928       52.25627       19.08365
H         37.31629       53.24926       17.83597
H         35.99820       52.97011       16.62727
H         36.36303       54.63956       17.19660
N         34.61121       54.42914       19.11128
C         33.61222       54.32397       20.17067
C         32.25945       53.99620       19.54141
O         31.38602       54.85058       19.49215
C         33.61085       55.65433       20.96510
C         32.73425       55.66670       22.18892
O         32.67375       56.78504       22.93433
O         32.09281       54.68567       22.52717
H         34.77793       55.35995       18.69781
H         33.90124       53.52975       20.89083
H         33.29945       56.48439       20.29461
H         34.64642       55.86128       21.31139
N         32.04778       52.77324       18.97723
C         30.85871       52.43566       18.19736
C         29.56239       52.37512       19.00117
O         28.52310       52.28108       18.36258
C         31.07872       51.10017       17.44595
C         32.21318       51.22501       16.41034
C         32.49076       49.89045       15.70654
C         33.60773       49.99712       14.65125
N         33.22697       50.84416       13.51771
H         32.80053       52.07743       19.04011
H         30.72331       53.23253       17.43175
H         30.15427       50.81749       16.89523
H         31.30447       50.29714       18.18294
H         33.15624       51.55568       16.89352
H         31.90788       51.99504       15.67247
H         31.56606       49.50577       15.22467
H         32.81467       49.15569       16.47662
H         33.82056       48.97414       14.27014
H         34.53975       50.38664       15.11892
H         32.34800       50.48403       13.07960
H         33.09667       51.83647       13.81477
H         33.99047       50.81996       12.80397
N         29.51703       52.41828       20.36752
C         28.25236       52.42504       21.11412
C         28.08029       53.67950       21.96763
O         27.05022       53.80207       22.61743
C         28.07533       51.12819       21.93179
C         29.07342       50.88282       23.02641
O         28.93877       49.78319       23.79017
O         29.99211       51.65494       23.24086
H         30.39984       52.44444       20.89624
H         27.39284       52.43477       20.40884
H         28.10762       50.26439       21.23316
H         27.06467       51.14474       22.39641
N         28.99946       54.68663       21.96491
C         28.78843       55.95579       22.63665
C         28.84743       55.91643       24.14720
O         28.61281       56.96600       24.73088
H         29.83745       54.60945       21.38074
H         27.81037       56.37021       22.31028
H         29.57782       56.66902       22.31104
N         29.18746       54.80220       24.86685
C         29.27728       54.84460       26.32932
C         30.34581       55.82337       26.81895
O         30.37280       56.11635       28.00626
C         29.50918       53.44447       26.94382
C         30.88832       52.87822       26.68040
N         31.71410       52.57516       27.71012
O         31.26289       52.68533       25.53494
H         29.37577       53.91966       24.37490
H         28.28623       55.19819       26.69219
H         28.74022       52.74201       26.55651
H         29.35876       53.52345       28.04296
H         31.42348       52.72488       28.68739
H         32.65247       52.18903       27.53234
N         31.26619       56.35053       25.96000
C         32.27467       57.32292       26.32783
C         33.67150       56.77914       26.15011
O         34.60284       57.56279       26.27021
H         31.27626       56.05262       24.97673
H         32.16747       57.66742       27.37963
H         32.14329       58.20587       25.66662
N         33.91013       55.44471       25.95355
C         35.25473       54.88662       25.92513
C         35.40201       53.88971       24.74578
O         34.50095       52.83887       24.97135
C         35.57510       54.20474       27.28515
C         35.30496       55.12124       28.45792
C         33.98873       55.29247       28.92515
C         36.34867       55.81513       29.09026
C         33.71852       56.14804       29.99351
C         36.07495       56.67936       30.15723
C         34.75739       56.84886       30.61066
O         34.47750       57.68073       31.63395
H         33.12227       54.78216       25.94865
H         36.00013       55.70248       25.79531
H         36.64839       53.91485       27.27526
H         34.99235       53.27073       27.43684
H         33.16814       54.76263       28.46124
H         37.36938       55.70249       28.74745
H         32.69865       56.26832       30.33761
H         36.88611       57.21974       30.62797
H         35.16383       58.19275       32.08436
N         36.77531       53.36106       24.71402
C         37.11020       52.45656       23.59324
C         37.77596       51.23728       24.20424
O         38.70508       51.39347       24.98491
C         38.05162       53.13250       22.54309
C         37.36385       54.37090       21.91232
C         38.44934       52.11408       21.44812
C         38.26302       55.15418       20.95118
H         37.49638       54.11104       24.83436
H         36.19104       52.13081       23.05536
H         38.98002       53.46310       23.06077
H         37.06802       55.07755       22.71515
H         36.44507       54.05549       21.37432
H         37.55202       51.76081       20.89583
H         39.16970       52.54887       20.72822
H         38.96241       51.23378       21.88735
H         37.71717       56.04748       20.58180
H         39.18278       55.49166       21.47498
H         38.54394       54.55185       20.06438
N         37.35152       49.98538       23.87454
C         37.87072       48.76368       24.47598
C         38.60495       47.91045       23.45793
O         38.65225       48.25667       22.28545
C         36.69834       47.98160       25.09456
O         35.78528       47.61065       24.09414
H         36.62575       49.89203       23.15628
H         38.59567       49.00919       25.28187
H         36.20506       48.63715       25.84742
H         37.06079       47.06774       25.61019
H         34.90981       47.47113       24.53963
N         39.22745       46.76754       23.86618
C         39.95392       45.88056       22.96486
C         39.04008       45.26451       21.92288
O         39.50187       45.00529       20.82028
C         40.64290       44.76404       23.75463
H         39.19699       46.52905       24.86953
H         40.75345       46.46470       22.45562
H         41.34086       45.20494       24.49856
H         39.89316       44.14315       24.29043
H         41.22938       44.11412       23.07042
N         37.73588       44.98117       22.20695
C         36.81288       44.41964       21.22621
C         36.63390       45.37545       20.06045
O         36.89262       44.99659       18.92694
C         35.45282       44.13470       21.87879
H         37.38530       45.17630       23.15767
H         37.21443       43.44804       20.86048
H         34.99621       45.06241       22.28537
H         34.75713       43.69003       21.13574
H         35.57970       43.41433       22.71477
N         36.20394       46.64902       20.28357
C         36.00847       47.64558       19.22870
C         37.30583       48.02011       18.51524
O         37.22807       48.72642       17.51856
C         35.43132       48.92674       19.85749
C         33.99484       48.75591       20.39439
C         33.76483       49.76745       21.47410
O         32.94351       50.82091       21.34418
O         34.38483       49.64913       22.51524
H         36.00247       46.91593       21.25969
H         35.29886       47.23940       18.47400
H         35.41508       49.76861       19.13492
H         36.13757       49.20514       20.67398
H         33.83774       47.76241       20.86603
H         33.27918       48.85659       19.54986
N         38.52987       47.62675       18.96530
C         39.75494       47.98959       18.28752
H         40.62753       47.57592       18.83734
H         39.75515       47.57487       17.25732
H         39.85382       49.09507       18.24568
H         38.61244       47.07420       19.82399
Ca        33.39082       52.20148       23.08151
O         33.96407       50.16312       26.09318
H         33.35198       49.70528       26.72223
H         34.63338       50.60240       26.67553
O         31.44689       48.85127       24.88486
H         31.57825       49.80830       24.66658
H         30.83389       48.85749       25.66279

Ca 1.0



