%chk=holoCaM-CaMKII.loop4.water2.frame153.chk
%nprocshared=20
%mem=10GB
%nosave
#b3lyp/svp scf=(tight,noincore,xqc) Test 
#IOP(5/87=12) Density=Current Pop=(MK,readradii) iop(6/33=2) iop(6/42=6)

holoCaM-CaMKII.loop4.water2.frame153 

   -3  1 
C         -3.49827       75.51294       59.36088
C         -3.04803       74.40537       60.26675
O         -2.51268       73.41876       59.79176
H         -4.59098       75.67087       59.48114
H         -2.96628       76.44998       59.63148
H         -3.28322       75.27222       58.29872
N         -3.23666       74.52114       61.60609
C         -2.81718       73.52958       62.59446
C         -3.53642       72.19540       62.38251
O         -4.75394       72.19632       62.26725
C         -3.12288       74.09817       63.99390
C         -2.57361       73.29431       65.12830
O         -2.79990       73.71864       66.37935
O         -1.90220       72.29428       64.94102
H         -3.68995       75.38760       61.93944
H         -1.71355       73.39601       62.52120
H         -4.22239       74.20288       64.11906
H         -2.66271       75.10736       64.08083
N         -2.83874       71.01739       62.34410
C         -3.44246       69.70923       62.05608
C         -3.44569       68.77527       63.27567
O         -4.20207       67.81420       63.25561
C         -2.70184       69.06132       60.83271
C         -2.76964       70.01217       59.60940
C         -3.24760       67.66381       60.47369
C         -1.97420       69.54144       58.38951
H         -1.82562       71.05754       62.50207
H         -4.51328       69.85638       61.79454
H         -1.63129       68.93335       61.10901
H         -2.32905       70.98349       59.89812
H         -3.82846       70.17733       59.31432
H         -2.67941       67.21374       59.63641
H         -3.11032       66.95193       61.31082
H         -4.32198       67.71844       60.20124
H         -2.02709       70.31902       57.59833
H         -0.90835       69.38492       58.65924
H         -2.39264       68.60888       57.96210
N         -2.64620       68.97252       64.36184
C         -2.62302       68.08165       65.52891
C         -3.02007       68.81617       66.81714
O         -3.03032       68.18927       67.86735
C         -1.25235       67.36075       65.60340
C         -0.11217       68.32178       65.49997
O          0.00993       69.28121       66.41967
O          0.63707       68.29427       64.53802
H         -1.99669       69.76986       64.36317
H         -3.37405       67.26761       65.42892
H         -1.18756       66.66274       64.73963
H         -1.17463       66.75528       66.53253
N         -3.46315       70.10740       66.79686
C         -4.05402       70.79120       67.93676
C         -3.10795       71.10501       69.07305
O         -3.41208       70.74628       70.20176
H         -3.50128       70.61550       65.90506
H         -4.92300       70.20332       68.30733
H         -4.45072       71.76835       67.58460
N         -1.98635       71.85051       68.86259
C         -1.16027       72.39458       69.94140
C         -1.08779       73.91692       69.85912
O         -0.20428       74.50784       70.46429
C          0.21117       71.69692       69.98133
C          1.08285       71.80233       68.76592
O          0.83001       72.62997       67.73801
O          2.02942       71.03736       68.67109
H         -1.73101       72.08685       67.89407
H         -1.60626       72.16498       70.93407
H         -0.01259       70.61560       70.12206
H          0.79933       72.02993       70.86289
N         -2.05032       74.62361       69.19456
C         -2.09620       76.07558       69.12095
C         -1.01798       76.70324       68.26434
O         -1.03021       77.92478       68.16167
H         -2.84430       74.12254       68.77609
H         -2.06054       76.49524       70.14866
H         -3.06682       76.37174       68.66599
N         -0.06527       75.97642       67.61384
C          0.96988       76.57846       66.78407
C          0.92737       76.03073       65.37214
O          0.19918       75.08044       65.09739
C          2.35329       76.31665       67.41672
C          2.49714       77.03681       68.76854
C          3.81377       76.76759       69.45614
N          4.08692       77.37253       70.63507
O          4.63520       76.00718       68.96369
H         -0.05437       74.95234       67.70816
H          0.82034       77.67861       66.70167
H          3.15966       76.68661       66.74630
H          2.48558       75.22081       67.55423
H          1.68509       76.71940       69.45604
H          2.40934       78.13147       68.59378
H          3.40812       78.02049       71.06165
H          4.97881       77.19781       71.12128
N          1.68657       76.61660       64.41072
C          1.77370       76.16534       63.03112
C          3.22705       75.86570       62.73816
O          4.07145       76.73494       62.93061
C          1.20405       77.24052       62.06441
C          1.36250       76.81773       60.59100
C         -0.28770       77.48192       62.34857
H          2.24502       77.44824       64.67096
H          1.17141       75.24033       62.87396
H          1.75303       78.19742       62.21027
H          0.94374       77.59608       59.91795
H          2.43299       76.70009       60.32754
H          0.83701       75.85824       60.39399
H         -0.43985       77.83428       63.38955
H         -0.68933       78.25870       61.66321
H         -0.87043       76.54592       62.19968
N          3.58446       74.66221       62.22457
C          4.94911       74.30207       61.86975
C          5.09002       74.45189       60.36317
O          4.10020       74.75997       59.71050
C          5.19961       72.87609       62.43371
C          6.59923       72.31624       62.33002
N          7.31710       72.05111       63.44753
O          7.07589       72.04711       61.24056
H          2.83775       73.99046       61.98930
H          5.66602       75.01353       62.33660
H          4.49746       72.15751       61.95710
H          4.93753       72.91814       63.51216
H          6.93431       72.24164       64.38506
H          8.26214       71.64557       63.37670
N          6.28860       74.34153       59.73291
C          6.41371       74.47475       58.28618
C          5.65827       73.35946       57.57297
O          5.02173       73.63506       56.56741
C          7.89307       74.50318       57.85917
C          8.04989       74.82870       56.38851
C          7.58366       76.05448       55.87327
C          8.67005       73.91719       55.51971
C          7.72899       76.35517       54.51639
C          8.81728       74.22225       54.16231
C          8.34577       75.44264       53.65633
O          8.48159       75.74947       52.35042
H          7.13911       74.19921       60.29622
H          5.97457       75.45559       57.99794
H          8.36370       73.52752       58.11041
H          8.42196       75.29493       58.43395
H          7.10783       76.78240       56.51805
H          9.04011       72.97049       55.89158
H          7.36323       77.30047       54.13392
H          9.29837       73.50950       53.50509
H          8.90603       75.14854       51.72173
N          5.66560       72.07756       58.05071
C          4.91954       70.98936       57.41371
C          3.40085       71.19280       57.43511
O          2.70851       70.40683       56.80249
C          5.26596       69.62303       58.06095
C          4.71604       69.45627       59.49486
C          5.06089       68.13101       60.11910
O          4.60670       67.84904       61.35519
O          5.73489       67.30376       59.52502
H          6.23828       71.86988       58.87901
H          5.25803       70.94834       56.35484
H          6.37111       69.49967       58.06198
H          4.83296       68.81282       57.43324
H          3.60980       69.51529       59.46371
H          5.10168       70.26205       60.15245
N          2.81276       72.19237       58.15795
C          1.37203       72.40607       58.24731
C          0.95992       73.72774       57.60450
O         -0.23307       73.98253       57.51420
C          0.92686       72.40546       59.73034
C          1.46430       71.20219       60.51645
C          1.00801       71.20404       61.94535
O          0.38285       70.12431       62.44376
O          1.24062       72.15457       62.67483
H          3.40410       72.81771       58.70374
H          0.84102       71.59126       57.70828
H         -0.18111       72.42312       59.77665
H          1.31089       73.32685       60.22126
H          2.57109       71.25106       60.53010
H          1.14406       70.25647       60.02954
N          1.87919       74.62546       57.14364
C          1.51022       75.87684       56.52242
H          0.90944       76.49038       57.22546
H          2.42791       76.44479       56.25248
H          0.93168       75.68195       55.59556
H          2.88115       74.44088       57.23817
Ca         0.64396       71.36802       65.93373
O          3.52363       70.41413       64.46189
H          2.65231       69.95568       64.55653
H          4.09402       69.76092       63.98464
O          3.27975       73.45505       65.60435
H          3.61044       73.15980       66.48980
H          3.81751       74.25981       65.39495

Ca 1.0



