%chk=holoCaM-CaMKII.loop3.water2.frame45.chk
%nprocshared=20
%mem=10GB
%nosave
#b3lyp/svp scf=(tight,noincore,xqc) Test 
#IOP(5/87=12) Density=Current Pop=(MK,readradii) iop(6/33=2) iop(6/42=6)

holoCaM-CaMKII.loop3.water2.frame45 

   0  1 
C          7.85402       48.03002        5.89186
C          8.38637       46.63772        6.06961
O          7.68312       45.69045        5.74834
H          6.92002       48.14879        6.47965
H          8.58477       48.79240        6.23632
H          7.63661       48.21034        4.81856
N          9.63889       46.43529        6.56569
C         10.21704       45.10573        6.75420
C          9.45518       44.33253        7.83695
O          8.55695       44.89554        8.44861
C         11.73214       45.27632        7.03393
C         12.50670       43.99677        7.07740
O         13.29964       43.71809        8.12615
O         12.44944       43.21631        6.14416
H         10.21293       47.26473        6.78685
H         10.12009       44.55182        5.79483
H         11.89521       45.85087        7.97103
H         12.15804       45.86598        6.19130
N          9.74562       43.02704        8.11424
C          9.00538       42.21660        9.07836
C          9.81675       41.99520       10.36189
O          9.31354       41.34777       11.26813
C          8.55158       40.93090        8.34602
C          7.55690       40.04829        9.11559
C          7.02518       38.92513        8.20751
C          5.98096       38.06160        8.92846
N          5.43384       37.04282        8.03102
H         10.51302       42.56089        7.61413
H          8.08622       42.75420        9.39781
H          9.43673       40.33054        8.05003
H          8.03250       41.26451        7.41912
H          6.69700       40.67467        9.43854
H          8.04147       39.60561       10.01031
H          7.86684       38.28196        7.86855
H          6.54646       39.38130        7.31257
H          5.14945       38.70805        9.28772
H          6.44888       37.56801        9.80874
H          6.19533       36.41306        7.68879
H          4.72792       36.47156        8.54955
H          4.96148       37.49843        7.21602
N         11.02959       42.60288       10.55262
C         11.77541       42.56252       11.81822
C         12.84882       43.66372       11.96229
O         13.53876       43.63523       12.97250
C         12.37819       41.15284       12.05233
C         13.35562       40.74922       10.99577
O         13.78989       39.60883       10.96780
O         13.67244       41.60234       10.01441
H         11.39947       43.15239        9.77909
H         11.06436       42.75873       12.64965
H         11.55455       40.40845       12.04387
H         12.87568       41.09245       13.04323
N         13.02777       44.69171       11.06801
C         13.99864       45.75823       11.27199
C         15.45128       45.32021       11.20776
O         16.30367       46.14289       11.51123
H         12.42323       44.80827       10.25051
H         13.79883       46.21666       12.26427
H         13.85321       46.54787       10.50180
N         15.82385       44.06041       10.83605
C         17.20723       43.58712       10.89057
C         18.14864       44.31031        9.92991
O         19.34824       44.09421       10.02508
C         17.26046       42.05304       10.68044
C         17.04220       41.61565        9.24859
N         17.89529       40.74485        8.65881
O         16.08637       42.03689        8.61948
H         15.09295       43.39537       10.57374
H         17.55156       43.77668       11.93124
H         16.48100       41.59147       11.32577
H         18.24112       41.66384       11.02774
H         18.69435       40.35204        9.17745
H         17.74001       40.43557        7.68769
N         17.68010       45.16411        8.97369
C         18.52992       45.91194        8.06322
C         18.26794       45.55642        6.61734
O         18.74654       46.28571        5.75817
H         16.66705       45.31167        8.86802
H         19.61331       45.77210        8.27039
H         18.29751       46.98827        8.21163
N         17.57927       44.43035        6.25905
C         17.32776       44.05594        4.87094
C         15.85945       43.71119        4.66645
O         15.15010       43.53378        5.64741
C         18.15844       42.81027        4.48328
C         19.65122       42.94941        4.68816
C         20.20196       43.00190        5.98333
C         20.51594       42.97985        3.58116
C         21.58413       43.09306        6.16413
C         21.89905       43.07261        3.76472
C         22.43760       43.12835        5.05813
O         23.76973       43.20753        5.24982
H         17.26560       43.77839        6.99296
H         17.60267       44.89573        4.19461
H         17.95030       42.59372        3.41250
H         17.82610       41.92916        5.07202
H         19.57014       42.95416        6.85984
H         20.12160       42.93093        2.57399
H         21.99196       43.12706        7.16688
H         22.55091       43.09524        2.90080
H         24.39565       43.22313        4.51187
N         15.34313       43.55892        3.41161
C         13.99638       43.04930        3.14634
C         14.04515       41.98277        2.06080
O         14.70071       42.18998        1.04734
C         12.97294       44.18122        2.83124
C         11.53431       43.58415        2.80293
C         13.30736       44.93926        1.53637
C         10.41675       44.61771        2.67661
H         15.94349       43.79847        2.60654
H         13.60935       42.57205        4.06893
H         13.01677       44.90441        3.67651
H         11.35447       43.04104        3.75623
H         11.43268       42.85543        1.97227
H         12.61179       45.79003        1.39000
H         14.33216       45.35965        1.58845
H         13.22932       44.27139        0.65354
H         10.46217       45.14182        1.70172
H          9.43558       44.09859        2.73724
H         10.47576       45.35655        3.50253
N         13.31867       40.83795        2.18446
C         13.27806       39.78348        1.17943
C         11.88792       39.67920        0.57359
O         11.00133       40.41280        0.97861
C         13.71640       38.45598        1.82129
O         12.84250       38.08220        2.85561
H         12.72487       40.72273        3.01404
H         13.97811       40.01149        0.34685
H         14.76151       38.55200        2.19976
H         13.73436       37.64103        1.06927
H         13.26672       38.35537        3.71056
N         11.63879       38.80499       -0.43972
C         10.33627       38.65385       -1.08802
C          9.28192       38.13348       -0.12898
O          8.18979       38.68182       -0.09766
C         10.44672       37.69515       -2.27541
H         12.42553       38.23286       -0.78435
H         10.00834       39.63343       -1.50478
H         10.77418       36.68681       -1.94578
H          9.46252       37.60935       -2.78533
H         11.18076       38.09406       -3.00792
N          9.55308       37.08271        0.69701
C          8.59515       36.53003        1.65483
C          8.01331       37.61893        2.53423
O          6.80124       37.73263        2.64876
C          9.29668       35.48596        2.54125
H         10.50541       36.68522        0.67024
H          7.76823       36.02529        1.10999
H          8.58072       35.04951        3.26997
H          9.70962       34.66503        1.91820
H         10.13636       35.94588        3.10899
N          8.85173       38.47166        3.16750
C          8.43125       39.55072        4.05404
C          7.58948       40.57332        3.31364
O          6.56367       40.98806        3.83386
C          9.67416       40.22431        4.66191
C         10.50480       39.19399        5.44928
C         11.72433       39.79920        6.02868
O         12.53462       40.38129        5.33185
O         11.97635       39.63410        7.32282
H          9.85609       38.34346        2.98076
H          7.84285       39.13818        4.90522
H          9.35920       41.04400        5.34508
H         10.29441       40.66573        3.85076
H         10.86098       38.36876        4.80876
H          9.89061       38.74509        6.25999
N          7.95941       41.00096        2.07568
C          7.22999       41.97590        1.29428
H          6.36954       42.40335        1.84805
H          7.91767       42.80120        1.01376
H          6.85656       41.49599        0.36463
H          8.78976       40.59012        1.64240
Ca        13.78507       40.63053        8.06592
O         15.64754       40.33223        5.10392
H         15.22717       39.46323        5.32115
H         16.36561       40.10389        4.46184
O         15.68544       38.42355        7.89457
H         15.53550       38.69420        8.83529
H         15.07203       37.65932        7.75522

Ca 1.0



