%chk=holoCaM.loop1.water2.frame309.chk
%nprocshared=20
%mem=10GB
%nosave
#b3lyp/svp scf=(tight,noincore,xqc) Test 
#IOP(5/87=12) Density=Current Pop=(MK,readradii) iop(6/33=2) iop(6/42=6)

holoCaM.loop1.water2.frame309 

   0  1 
C         29.55363       37.15211       42.02352
C         29.10415       36.88973       40.61935
O         29.20016       35.76089       40.15761
H         30.34673       37.92708       42.02372
H         28.68944       37.51288       42.62227
H         29.94532       36.22474       42.49241
N         28.55367       37.89696       39.88900
C         27.99438       37.67938       38.56484
C         29.09357       37.36952       37.54367
O         29.93501       38.21252       37.26916
C         27.15098       38.89805       38.15368
C         26.26745       38.65507       36.96912
O         26.23400       37.57485       36.40064
O         25.45551       39.64277       36.56637
H         28.45466       38.82360       40.33344
H         27.28184       36.82668       38.65980
H         27.80902       39.77432       37.96934
H         26.46419       39.15051       38.99020
N         29.13989       36.13808       36.97378
C         30.13082       35.66210       36.00664
C         29.99348       36.35515       34.65635
O         30.98348       36.81761       34.10889
C         29.93429       34.13676       35.77697
C         30.19302       33.31631       37.05757
C         29.87264       31.81878       36.91141
C         30.76874       31.08707       35.90432
N         30.47278       29.65356       35.89947
H         28.42736       35.47712       37.28771
H         31.15966       35.80518       36.40465
H         30.64003       33.79508       34.98989
H         28.89732       33.94589       35.41939
H         29.55062       33.69262       37.87723
H         31.24843       33.44723       37.37859
H         28.80663       31.68904       36.62106
H         30.01749       31.35066       37.90995
H         31.83478       31.23680       36.18367
H         30.60720       31.49415       34.88318
H         31.09558       29.17626       35.20873
H         30.64842       29.24654       36.84739
H         29.47585       29.49029       35.62795
N         28.77789       36.39857       34.04932
C         28.52507       36.84431       32.67174
C         27.76589       38.17425       32.58021
O         27.52571       38.62602       31.46857
C         27.79237       35.72302       31.86955
C         26.45421       35.31362       32.44403
O         26.07408       35.81806       33.62635
O         25.73745       34.52128       31.85453
H         28.00351       36.06236       34.62617
H         29.49255       37.03096       32.15651
H         28.43639       34.81967       31.81571
H         27.63114       36.08597       30.83070
N         27.42156       38.89355       33.68374
C         26.83966       40.22890       33.63015
C         25.45440       40.30345       33.01622
O         25.28064       41.07185       32.08066
H         27.66406       38.52812       34.61167
H         27.53190       40.90267       33.07677
H         26.76742       40.62715       34.66187
N         24.40949       39.57661       33.51270
C         23.03083       39.71954       33.03200
C         22.05022       40.04842       34.16027
O         20.85242       40.01980       33.91459
C         22.62837       38.49622       32.17675
C         22.62613       37.15461       32.83749
O         22.54350       37.00544       34.16368
O         22.75435       36.15672       32.14624
H         24.59700       38.89162       34.25957
H         22.95434       40.56553       32.31484
H         23.38726       38.44590       31.36409
H         21.64328       38.64373       31.68653
N         22.47598       40.44348       35.40089
C         21.56743       40.80989       36.48290
C         20.79774       39.63724       37.06568
O         19.93921       39.86602       37.90549
H         23.47947       40.56003       35.57715
H         20.86097       41.58035       36.10666
H         22.14862       41.26171       37.31685
N         21.06796       38.35762       36.69224
C         20.37226       37.17554       37.17781
C         21.38211       36.28753       37.87519
O         22.38321       35.93262       37.26747
C         19.70964       36.45679       35.97804
C         19.03649       35.14041       36.37324
O         18.74090       37.29646       35.40307
H         21.82839       38.19550       36.02788
H         19.56475       37.44762       37.89346
H         20.47634       36.19485       35.21986
H         19.20954       37.88471       34.75505
H         18.24618       35.31700       37.13201
H         18.57753       34.67585       35.47422
H         19.78177       34.42392       36.78022
N         21.16963       35.87751       39.15646
C         22.11494       35.06259       39.90815
C         21.51158       33.67533       40.08069
O         20.36027       33.56386       40.47912
C         22.47827       35.75448       41.25157
C         22.87598       37.24920       41.07105
C         23.59528       34.98187       41.97896
C         24.07689       37.51557       40.15479
H         20.28910       36.14332       39.62462
H         23.06380       34.95884       39.34607
H         21.57736       35.74976       41.90419
H         23.09517       37.68569       42.06992
H         22.00723       37.80726       40.65984
H         23.28388       33.93724       42.18529
H         24.52096       34.95032       41.36735
H         23.83215       35.46765       42.94918
H         24.25063       38.61129       40.09931
H         25.00032       37.04201       40.54371
H         23.88577       37.15613       39.12447
N         22.24174       32.56999       39.76166
C         21.71871       31.20876       39.70345
C         22.26128       30.38186       40.85491
O         22.95046       30.92243       41.70174
C         22.09934       30.56945       38.33473
C         21.61404       31.40115       37.13687
O         23.48531       30.32801       38.25496
H         23.23160       32.69593       39.53404
H         20.61032       31.21395       39.79210
H         21.59984       29.58361       38.24207
H         23.93669       31.16007       37.96632
H         20.51191       31.52161       37.16873
H         22.08424       32.40708       37.14089
H         21.89363       30.88991       36.19061
N         21.98495       29.05290       40.95468
C         22.50455       28.20310       42.02530
C         24.02879       28.21427       42.05337
O         24.59618       28.51849       43.09313
C         21.98227       26.74816       41.88602
C         20.46612       26.67068       42.10546
O         22.30565       26.22968       40.62035
H         21.38852       28.62668       40.23140
H         22.14542       28.58897       43.00662
H         22.47124       26.13673       42.68069
H         22.22648       25.24220       40.68031
H         20.13088       25.61453       42.03344
H         20.20955       27.04863       43.11786
H         19.91295       27.26459       41.34931
N         24.75355       27.89065       40.94661
C         26.21354       27.82109       40.92362
C         26.84458       29.14136       41.32769
O         27.70982       29.14222       42.19241
C         26.68209       27.37171       39.51790
C         28.20357       27.18393       39.34038
C         28.82600       26.24772       40.39442
C         30.30582       25.92556       40.12753
N         30.47524       25.00309       39.00237
H         24.24023       27.67383       40.07909
H         26.53220       27.03751       41.64439
H         26.32978       28.09716       38.75107
H         26.19818       26.39291       39.30393
H         28.71871       28.16828       39.38712
H         28.35024       26.77234       38.32023
H         28.25757       25.29567       40.46895
H         28.77362       26.76420       41.37546
H         30.72053       25.43528       41.03618
H         30.88030       26.86283       39.95511
H         30.11359       25.41293       38.11363
H         31.49300       24.79558       38.88335
H         29.97808       24.10467       39.20556
N         26.43751       30.30824       40.75980
C         27.01787       31.61213       41.08445
C         26.92323       31.88113       42.58146
O         27.95274       32.07498       43.21342
C         26.33768       32.72975       40.25183
C         26.57214       32.51129       38.74005
C         25.90064       33.52944       37.85893
O         24.56758       33.66951       37.85714
O         26.55450       34.17976       37.06746
H         25.66555       30.25395       40.08023
H         28.09706       31.60477       40.81016
H         26.76327       33.71715       40.53785
H         25.25386       32.74031       40.47892
H         26.19704       31.52286       38.41923
H         27.66321       32.52616       38.55869
N         25.72716       31.85518       43.22506
C         25.60272       32.01936       44.65757
H         24.53679       31.92060       44.95779
H         26.18395       31.22958       45.18142
H         25.97076       33.01999       44.96405
H         24.87786       31.68173       42.68519
Ca        24.26460       35.85907       34.89322
O         22.27165       33.59275       34.79549
H         21.77120       34.39666       34.51263
H         21.86614       32.85581       34.27465
O         25.20446       32.66707       34.55372
H         25.17761       31.84468       35.10441
H         25.33634       32.34218       33.62786

Ca 1.0



