%chk=holoCaM.loop4.water3.frame369.chk
%nprocshared=20
%mem=10GB
%nosave
#b3lyp/svp scf=(tight,noincore,xqc) Test 
#IOP(5/87=12) Density=Current Pop=(MK,readradii) iop(6/33=2) iop(6/42=6)

holoCaM.loop4.water3.frame369 

   -3  1 
C         15.44992       13.17832       62.59583
C         16.56607       12.96687       61.61987
O         16.43733       13.42454       60.49651
H         14.52531       12.69198       62.22299
H         15.70144       12.77675       63.59832
H         15.26679       14.27123       62.69208
N         17.69859       12.28988       61.97053
C         18.86778       12.21332       61.09846
C         19.81805       11.10404       61.54677
O         20.24606       11.09904       62.69280
C         19.54520       13.59792       61.10455
C         20.83669       13.66063       60.36060
O         21.84627       13.99446       60.95801
O         20.95004       13.32906       59.06786
H         17.75652       11.88152       62.91643
H         18.54544       11.97335       60.06213
H         19.75309       13.88890       62.15867
H         18.86166       14.35331       60.66800
N         20.19879       10.13749       60.65403
C         21.08110        9.01275       60.96796
C         22.42666        9.09914       60.23609
O         23.27785        8.26701       60.51938
C         20.37081        7.64688       60.65168
C         20.12925        7.44422       59.12515
C         19.05216        7.53819       61.43772
C         19.49042        6.10849       58.73685
H         19.84414       10.20893       59.69568
H         21.32198        9.03252       62.05376
H         21.04180        6.83086       61.00209
H         21.09849        7.50996       58.58569
H         19.46204        8.23246       58.74605
H         18.31007        8.27633       61.06369
H         18.61716        6.52198       61.34358
H         19.22910        7.71991       62.51755
H         19.38527        6.06475       57.63052
H         20.12164        5.25824       59.06697
H         18.47118        6.00947       59.16254
N         22.67859       10.02542       59.25785
C         23.91989       10.04979       58.47267
C         24.54221       11.45232       58.30188
O         25.61798       11.54313       57.72754
C         23.69358        9.30110       57.13342
C         22.59104        9.80907       56.23272
O         21.81379       10.84478       56.57988
O         22.35915        9.22627       55.18714
H         21.92004       10.65834       58.98241
H         24.69983        9.45942       59.00330
H         23.43520        8.24763       57.38642
H         24.64562        9.28216       56.56216
N         23.95211       12.57445       58.80358
C         24.51644       13.92305       58.79730
C         24.85444       14.45909       57.42561
O         25.98921       14.86706       57.22293
H         23.06216       12.46863       59.28351
H         25.42858       13.94150       59.43119
H         23.77754       14.61465       59.25757
N         23.92196       14.49925       56.43703
C         24.21329       14.95916       55.07788
C         23.33944       16.13473       54.64461
O         23.35465       16.47169       53.46822
C         24.17093       13.74726       54.11920
C         22.87621       12.98955       54.04863
O         21.77068       13.41721       54.68090
O         22.83417       11.95088       53.41137
H         22.98165       14.13537       56.64898
H         25.25632       15.33447       54.99588
H         24.94437       13.03231       54.47614
H         24.45572       14.06329       53.09149
N         22.61941       16.86647       55.54755
C         21.82738       18.03909       55.19004
C         20.58148       17.73332       54.37911
O         19.86708       18.66981       54.05072
H         22.68551       16.63575       56.54775
H         22.46843       18.75949       54.63635
H         21.48612       18.53632       56.12369
N         20.25496       16.46268       54.01618
C         19.07784       16.10394       53.23585
C         18.28890       15.02512       53.95522
O         18.72959       14.55084       54.99244
C         19.52000       15.66126       51.82233
C         20.49222       14.46496       51.82081
C         21.02333       14.12192       50.45235
N         21.90935       13.10942       50.31493
O         20.68097       14.76088       49.46832
H         20.87045       15.69582       54.29804
H         18.41089       16.98555       53.11205
H         20.02922       16.53034       51.35045
H         18.62911       15.41310       51.20605
H         19.98622       13.57539       52.25354
H         21.38089       14.71163       52.42988
H         22.21112       12.56302       51.13132
H         22.30152       12.87161       49.39301
N         17.09914       14.58920       53.45800
C         16.30483       13.55372       54.10721
C         16.14899       12.35608       53.19645
O         15.62120       12.47675       52.09982
C         14.93330       14.08740       54.61131
C         15.13924       14.99147       55.83374
C         14.11109       14.82757       53.54399
H         16.74339       15.00739       52.58568
H         16.82020       13.18636       55.01593
H         14.33580       13.21658       54.96662
H         15.76338       15.87392       55.58060
H         14.16197       15.33460       56.23332
H         15.63779       14.41324       56.64055
H         13.13922       15.14814       53.97659
H         14.64048       15.73738       53.19131
H         13.89099       14.17314       52.67828
N         16.55782       11.13394       53.64026
C         16.22386        9.88775       52.97454
C         14.82086        9.49465       53.41092
O         14.26862       10.13587       54.28963
C         17.31082        8.84314       53.34128
C         17.12343        7.45591       52.77902
N         17.67153        7.10179       51.59632
O         16.53200        6.61441       53.43483
H         16.91878       11.06374       54.60151
H         16.21704       10.04204       51.87307
H         17.39754        8.75697       54.44794
H         18.29218        9.22872       52.98886
H         18.20996        7.77838       51.03818
H         17.56464        6.13718       51.24723
N         14.14915        8.49725       52.78322
C         12.77648        8.10861       53.12676
C         12.68976        7.26184       54.40005
O         11.57971        6.93992       54.80054
C         12.11095        7.42939       51.90837
C         12.90491        6.25402       51.39498
C         13.63921        6.38824       50.20322
C         12.95615        5.04302       52.10060
C         14.43330        5.34066       49.74083
C         13.74012        3.98782       51.62443
C         14.48803        4.13560       50.45186
O         15.25810        3.11760       50.02076
H         14.61522        8.06996       51.97319
H         12.17831        9.03293       53.30262
H         12.07356        8.21063       51.11608
H         11.05708        7.14017       52.11288
H         13.62339        7.31846       49.64769
H         12.39325        4.91383       53.01586
H         15.01078        5.47225       48.83493
H         13.77648        3.05671       52.17150
H         15.80285        3.19034       49.22413
N         13.80081        6.90915       55.11410
C         13.77036        6.20874       56.39877
C         13.93005        7.19648       57.54835
O         13.78892        6.80885       58.69926
C         14.90134        5.15784       56.44320
C         14.77621        4.10562       55.33112
C         13.58805        3.19443       55.50165
O         12.80078        3.26329       56.59353
O         13.35009        2.35420       54.65086
H         14.71589        7.24652       54.80220
H         12.77747        5.73434       56.54353
H         14.93679        4.65068       57.43199
H         15.86877        5.69350       56.30858
H         15.69137        3.47578       55.32134
H         14.71809        4.62329       54.35110
N         14.15316        8.50994       57.28665
C         14.16123        9.59323       58.24850
C         12.85175       10.35464       58.10823
O         12.29311       10.75747       59.11804
C         15.33522       10.53078       57.91262
C         16.70321        9.84285       58.06831
C         17.80952       10.65073       57.45024
O         19.05566       10.15644       57.41446
O         17.58530       11.72325       56.91949
H         14.27583        8.80063       56.31572
H         14.25626        9.22767       59.29580
H         15.31092       11.44053       58.55203
H         15.20918       10.85506       56.85425
H         16.70084        8.86593       57.54284
H         16.91236        9.66537       59.14698
N         12.27693       10.55153       56.88461
C         11.03613       11.25983       56.69612
H         10.22562       10.77196       57.27551
H         11.16158       12.31466       57.01161
H         10.76034       11.24061       55.61778
H         12.70641       10.17157       56.03824
Ca        20.45197       12.55790       57.05086
O         18.14880       14.21937       57.76439
H         17.63174       13.76553       58.46915
H         17.68973       15.08417       57.63343
O         19.62228       11.23802       54.31975
H         19.81770       10.32467       54.64679
H         20.33352       11.41771       53.65752
O         20.47254       15.51817       57.10035
H         19.76143       16.19174       56.95986
H         20.91289       15.79318       57.94208

Ca 1.0



