%chk=holoCaM-CaMKII.loop2.water1.frame98.chk
%nprocshared=20
%mem=10GB
%nosave
#b3lyp/svp scf=(tight,noincore,xqc) Test 
#IOP(5/87=12) Density=Current Pop=(MK,readradii) iop(6/33=2) iop(6/42=6)

holoCaM-CaMKII.loop2.water1.frame98 

   -2  1 
C          8.08694       65.70018       53.25254
C          6.98622       66.16223       52.34437
O          6.92233       65.68465       51.22619
H          9.07590       65.96232       52.82403
H          7.99353       66.14595       54.26406
H          8.02275       64.59432       53.35464
N          6.06844       67.08020       52.75616
C          4.89022       67.43241       51.97220
C          4.92087       68.88136       51.52058
O          4.92056       69.77276       52.35814
C          3.64954       67.15781       52.84056
C          2.36499       67.53722       52.17212
O          1.56711       68.44907       52.75898
O          2.03452       67.02432       51.11440
H          6.17768       67.50782       53.68859
H          4.82022       66.79301       51.06608
H          3.73215       67.73547       53.78725
H          3.61518       66.08402       53.10753
N          4.90515       69.17686       50.18520
C          4.79001       70.52410       49.64821
C          3.59600       70.59903       48.69093
O          3.76411       71.01718       47.55388
C          6.10641       70.90280       48.95515
H          4.95889       68.40844       49.50582
H          4.62084       71.25429       50.46869
H          6.94531       70.84860       49.68132
H          6.32118       70.20703       48.11488
H          6.05316       71.94046       48.56166
N          2.35042       70.21030       49.10414
C          1.14055       70.29228       48.26052
C         -0.19976       69.94313       48.95783
O         -1.22612       70.17601       48.33329
C          1.27955       69.47365       46.94814
C          1.61396       68.02652       47.17013
O          2.61705       67.55246       46.66412
O          0.80643       67.23657       47.89494
H          2.29924       69.88009       50.07039
H          1.02854       71.36020       47.96810
H          2.06620       69.91485       46.30341
H          0.33687       69.54528       46.36400
N         -0.30253       69.44631       50.22713
C         -1.55973       69.28161       50.94945
C         -2.50379       68.18986       50.47095
O         -3.55244       68.06172       51.08806
H          0.53282       69.25559       50.77302
H         -2.09759       70.25502       50.94818
H         -1.32087       69.03961       52.00854
N         -2.24847       67.37526       49.40614
C         -3.22597       66.39394       48.92687
C         -3.43181       65.17439       49.84225
O         -4.26093       64.34280       49.49789
C         -2.92013       65.95442       47.47706
C         -1.68285       65.12469       47.26472
N         -1.44286       64.61512       46.03533
O         -0.91097       64.89131       48.18136
H         -1.38852       67.52029       48.86753
H         -4.20431       66.91986       48.84636
H         -2.85744       66.85463       46.82700
H         -3.78249       65.34816       47.12397
H         -2.08894       64.80139       45.25497
H         -0.63071       64.01288       45.85991
N         -2.76636       65.00284       51.02366
C         -3.04804       63.89565       51.93552
C         -2.37226       62.57799       51.58634
O         -2.54569       61.63358       52.34387
H         -2.11182       65.72613       51.35017
H         -4.14779       63.76465       52.03992
H         -2.65880       64.16977       52.93939
N         -1.55305       62.44185       50.50762
C         -0.77208       61.23851       50.21027
C          0.71072       61.58369       50.22304
O          1.04526       62.74513       50.42017
C         -1.18019       60.67592       48.82040
C         -2.60227       60.11601       48.84200
O         -1.09945       61.67037       47.82966
H         -1.43088       63.24424       49.87992
H         -0.92931       60.44810       50.97711
H         -0.52858       59.81821       48.53839
H         -0.13685       61.85069       47.67005
H         -2.67471       59.29306       49.58556
H         -3.33861       60.90553       49.09852
H         -2.85613       59.70151       47.84244
N          1.65803       60.63090       49.96472
C          3.06429       60.96338       49.76383
C          3.34242       60.75702       48.29066
O          3.28766       59.62976       47.81609
C          4.03277       60.13166       50.65792
C          3.65326       60.25135       52.15545
C          5.48715       60.59843       50.41459
C          4.54535       59.42055       53.08510
H          1.36158       59.65686       49.79803
H          3.23443       62.03348       50.00577
H          3.95046       59.05970       50.37039
H          2.61226       59.88614       52.28800
H          3.69468       61.31125       52.47997
H          6.21599       59.97691       50.97080
H          5.76197       60.50516       49.34556
H          5.61273       61.66077       50.71797
H          4.53372       58.35154       52.78407
H          5.59058       59.79163       53.08434
H          4.17174       59.50063       54.12735
N          3.58362       61.83025       47.49182
C          3.80401       61.73029       46.06167
C          5.15524       61.08586       45.80111
O          5.90175       60.87003       46.74205
C          3.70266       63.12398       45.39161
C          2.28968       63.68708       45.39930
O          1.68892       63.74887       44.33823
O          1.66315       64.15095       46.50977
H          3.59711       62.75341       47.91642
H          3.01049       61.08625       45.62050
H          3.97792       62.98655       44.32452
H          4.42094       63.85002       45.83207
N          5.52194       60.69702       44.54814
C          6.79298       60.02551       44.29473
C          7.96748       60.98548       44.51019
O          8.84935       60.63030       45.27851
C          6.81344       59.36611       42.89237
C          7.93562       58.37577       42.61371
C          7.99584       57.81509       41.32538
C          8.89722       57.96938       43.56678
C          8.98764       56.88821       40.99270
C          9.88599       57.04097       43.22906
C          9.93281       56.50212       41.94361
H          4.85324       60.82423       43.77343
H          6.85401       59.17178       45.00697
H          6.83549       60.13404       42.10383
H          5.86664       58.79591       42.76939
H          7.26964       58.09944       40.57375
H          8.89907       58.33847       44.57693
H          9.02113       56.46747       39.99651
H         10.61496       56.73540       43.96914
H         10.69868       55.78212       41.68649
N          8.06174       62.22239       43.91276
C          9.17541       63.14865       44.11787
C          9.51494       63.34178       45.58178
O         10.67461       63.25210       45.95710
C          8.66484       64.47080       43.52252
C          7.78181       63.98366       42.40245
C          7.04442       62.83446       43.07564
H         10.05843       62.78157       43.54859
H          7.98607       64.98537       44.24144
H          9.46467       65.18362       43.22951
H          7.11892       64.75112       41.94905
H          8.44040       63.56048       41.60972
H          6.23008       63.20635       43.73260
H          6.63068       62.19435       42.28242
N          8.50926       63.56494       46.46775
C          8.68889       63.73294       47.90519
C          9.37820       62.52070       48.49811
O         10.42319       62.68147       49.11293
C          7.31214       63.96879       48.55991
C          6.74120       65.32518       48.09725
C          5.32161       65.55536       48.48991
O          4.73967       66.51819       48.02380
O          4.62799       64.66903       49.21978
H          7.55040       63.57722       46.08772
H          9.32219       64.62673       48.10612
H          7.40517       63.95725       49.66166
H          6.62530       63.14046       48.27294
H          6.73561       65.36897       46.98942
H          7.37351       66.15982       48.46664
N          8.86709       61.27304       48.32065
C          9.49723       60.06646       48.81315
H         10.42714       60.27582       49.38176
H          8.78956       59.52573       49.47459
H          9.75436       59.41428       47.95151
H          8.00091       61.16408       47.78462
Ca         2.50636       64.68913       48.53027
O          3.35940       63.92897       51.79473
H          3.11047       63.67484       52.71843
H          4.34673       63.99983       51.81352

Ca 1.0



