%chk=holoCaM-CaMKII.loop4.water2.frame74.chk
%nprocshared=20
%mem=10GB
%nosave
#b3lyp/svp scf=(tight,noincore,xqc) Test 
#IOP(5/87=12) Density=Current Pop=(MK,readradii) iop(6/33=2) iop(6/42=6)

holoCaM-CaMKII.loop4.water2.frame74 

   -3  1 
C         -2.54899       42.84519       72.60275
C         -1.06255       42.64605       72.63588
O         -0.33037       43.62182       72.56500
H         -2.86203       43.46783       73.46598
H         -2.83192       43.35257       71.65727
H         -3.08870       41.87520       72.65330
N         -0.54303       41.39551       72.75754
C          0.88816       41.12510       72.78374
C          1.50954       41.46839       71.43974
O          1.16450       40.84561       70.44490
C          1.09641       39.64599       73.14516
C          2.51218       39.16207       73.10767
O          3.48370       39.69698       73.87257
O          2.77163       38.19430       72.41552
H         -1.20048       40.60526       72.85470
H          1.34574       41.73784       73.58847
H          0.50480       39.01571       72.44338
H          0.69548       39.47357       74.16712
N          2.43340       42.46678       71.34434
C          3.04372       42.87336       70.08248
C          4.30234       42.04256       69.84184
O          4.36279       41.33545       68.84617
C          3.33012       44.41873       70.05278
C          2.03518       45.22948       70.34860
C          3.95234       44.83397       68.70664
C          2.23164       46.74981       70.40095
H          2.67665       42.98157       72.19919
H          2.32285       42.68200       69.25502
H          4.07357       44.66981       70.82834
H          1.64423       44.93315       71.34354
H          1.25955       44.99826       69.58767
H          4.23257       45.90727       68.71131
H          4.89236       44.27448       68.52083
H          3.24509       44.64565       67.87268
H          2.52939       47.15928       69.41524
H          1.27409       47.23630       70.68601
H          2.99819       47.02242       71.15291
N          5.36635       42.12196       70.69425
C          6.66546       41.48987       70.44172
C          6.70704       39.96303       70.59172
O          7.76779       39.39809       70.36167
C          7.75911       42.16195       71.30641
C          7.61892       41.99130       72.79617
O          8.53408       42.55921       73.60360
O          6.69923       41.35399       73.28459
H          5.28413       42.76162       71.49500
H          6.94956       41.72577       69.39172
H          7.75507       43.25188       71.08324
H          8.75247       41.76499       71.00522
N          5.61577       39.21948       70.92407
C          5.63185       37.76113       70.96562
C          6.35455       37.17798       72.16484
O          7.20963       36.32222       71.98939
H          4.71154       39.68665       71.07623
H          6.03043       37.35422       70.01025
H          4.58816       37.40265       71.04096
N          5.99539       37.55443       73.42365
C          6.46361       36.92553       74.65769
C          5.28904       36.41635       75.51245
O          5.52673       35.96444       76.62431
C          7.39046       37.88594       75.43769
C          6.78945       39.17657       75.92335
O          7.57001       40.04503       76.59289
O          5.61972       39.45440       75.72672
H          5.32492       38.32104       73.50905
H          7.09788       36.04144       74.42433
H          8.25048       38.13806       74.78048
H          7.79254       37.34621       76.32313
N          4.00611       36.39248       75.03541
C          2.87372       35.82832       75.75799
C          2.27945       36.70599       76.84854
O          1.30688       36.26968       77.44419
H          3.82726       36.67352       74.06458
H          3.14911       34.82981       76.16146
H          2.04807       35.66899       75.02906
N          2.76056       37.94756       77.14878
C          2.14449       38.82923       78.14805
C          1.71331       40.13752       77.51080
O          1.97616       40.34806       76.34045
C          3.15855       39.12243       79.27001
C          3.42869       37.89012       80.13784
C          4.42102       38.20994       81.22539
N          5.69975       38.53392       80.92157
O          4.06858       38.16937       82.39478
H          3.58329       38.29997       76.64496
H          1.23198       38.37272       78.58747
H          2.76533       39.91392       79.94428
H          4.09863       39.49578       78.81586
H          3.81620       37.04730       79.52785
H          2.46463       37.57949       80.59891
H          6.02034       38.55720       79.94257
H          6.37604       38.74945       81.66905
N          1.04067       41.07551       78.24939
C          0.71845       42.40248       77.73746
C          1.39144       43.42372       78.64160
O          0.97137       43.60062       79.77585
C         -0.81804       42.63364       77.66095
C         -1.14622       44.02244       77.08053
C         -1.50011       41.55995       76.79962
H          0.77949       40.85604       79.22124
H          1.11993       42.51501       76.70607
H         -1.24765       42.56942       78.68545
H         -0.74375       44.12398       76.04906
H         -2.24602       44.17742       77.04858
H         -0.71771       44.82810       77.70932
H         -1.11104       41.58171       75.75917
H         -1.33047       40.54968       77.22704
H         -2.59794       41.73307       76.77401
N          2.48176       44.10648       78.19780
C          3.17567       45.13191       78.97337
C          2.28458       46.35799       79.12101
O          1.22539       46.39745       78.51967
C          4.50004       45.48592       78.24553
C          5.38099       46.48513       78.94869
N          5.87118       46.23298       80.18448
O          5.66867       47.53112       78.38639
H          2.84322       43.85723       77.27562
H          3.41553       44.71038       79.97384
H          4.25662       45.86646       77.23197
H          5.09556       44.56007       78.12311
H          5.64706       45.35459       80.67331
H          6.47529       46.92262       80.65578
N          2.63494       47.39324       79.92920
C          1.83374       48.60493       80.06594
C          1.81936       49.41551       78.77737
O          0.73794       49.72312       78.29624
C          2.34950       49.43675       81.25609
C          1.62429       50.75346       81.42110
C          0.21883       50.81629       81.47247
C          2.36490       51.94197       81.52651
C         -0.42800       52.04751       81.60945
C          1.71636       53.16852       81.68287
C          0.31640       53.22598       81.71957
O         -0.32170       54.40456       81.86217
H          3.48734       47.30239       80.49887
H          0.78989       48.31352       80.31636
H          3.44167       49.61802       81.14664
H          2.19885       48.82977       82.17546
H         -0.38278       49.92091       81.39168
H          3.44737       51.91976       81.50005
H         -1.50997       52.08447       81.63150
H          2.30434       54.07265       81.77393
H          0.15827       55.24047       81.94893
N          2.97736       49.78695       78.15870
C          3.01009       50.55838       76.91204
C          2.16728       49.89016       75.84668
O          1.35096       50.55101       75.21968
C          4.45018       50.70957       76.36751
C          5.36001       51.52657       77.29405
C          6.70449       51.74335       76.65831
O          7.48454       50.69140       76.34327
O          7.09707       52.87565       76.42510
H          3.86436       49.46987       78.57457
H          2.60264       51.57884       77.08779
H          4.39256       51.24888       75.39405
H          4.89880       49.70787       76.17911
H          5.50575       51.00542       78.26200
H          4.88517       52.51276       77.49018
N          2.30048       48.55893       75.62281
C          1.54051       47.81970       74.62262
C          0.04517       47.99130       74.84947
O         -0.65226       48.38673       73.92553
C          1.97088       46.33675       74.62783
C          3.47378       46.21465       74.28229
C          3.89957       44.79394       74.16695
O          4.37820       44.38817       73.12849
O          3.79383       43.95435       75.20074
H          2.96374       48.05009       76.22464
H          1.77791       48.21781       73.61022
H          1.37803       45.79213       73.85937
H          1.76571       45.87279       75.61931
H          4.11592       46.69075       75.04537
H          3.66785       46.72399       73.31682
N         -0.50412       47.78419       76.07463
C         -1.90198       48.02467       76.35948
H         -2.53942       47.34531       75.75759
H         -2.10286       47.84663       77.43844
H         -2.15824       49.08205       76.13073
H          0.10018       47.49449       76.84556
Ca         3.66345       41.78107       74.69111
O          6.68550       43.73459       75.73541
H          7.50971       43.25512       76.00102
H          6.82629       44.66387       76.04624
O          5.37625       41.99877       77.96149
H          6.22045       42.43682       78.23586
H          5.57110       41.03417       78.04408

Ca 1.0



