%chk=holoCaM.loop2.water2.frame133.chk
%nprocshared=20
%mem=10GB
%nosave
#b3lyp/svp scf=(tight,noincore,xqc) Test 
#IOP(5/87=12) Density=Current Pop=(MK,readradii) iop(6/33=2) iop(6/42=6)

holoCaM.loop2.water2.frame133 

   -2  1 
C          4.58498       92.55764       88.84509
C          4.83786       91.08112       88.72041
O          5.58933       90.52166       89.50347
H          3.50031       92.72990       89.01937
H          5.15365       92.99660       89.69073
H          4.87740       93.07146       87.90466
N          4.20575       90.38549       87.74164
C          4.30095       88.94132       87.54923
C          5.72004       88.46816       87.23594
O          6.31905       88.94573       86.28291
C          3.32422       88.54209       86.42576
C          3.44894       87.10603       86.04352
O          3.67479       86.81562       84.87983
O          3.46432       86.12686       86.95868
H          3.58256       90.92283       87.11684
H          3.95284       88.43162       88.47429
H          3.51819       89.15518       85.51682
H          2.28906       88.74748       86.76362
N          6.28052       87.46768       87.98617
C          7.60034       86.88755       87.74925
C          7.56378       85.37209       87.47046
O          8.62485       84.82307       87.20747
C          8.46769       87.14805       88.99053
H          5.74082       87.09485       88.77629
H          8.08145       87.37967       86.87703
H          8.53360       88.23853       89.19272
H          8.02311       86.65451       89.88388
H          9.49784       86.75729       88.84913
N          6.42195       84.62029       87.56979
C          6.39600       83.15079       87.48338
C          5.26357       82.57655       86.61103
O          5.18564       81.35991       86.50821
C          6.34883       82.56765       88.92143
C          5.32701       83.24946       89.79510
O          4.03439       83.28024       89.44271
O          5.69637       83.90306       90.75679
H          5.55678       85.08454       87.86111
H          7.33711       82.76966       87.02787
H          7.34514       82.74626       89.38336
H          6.19239       81.46778       88.89536
N          4.38262       83.35662       85.92370
C          3.34672       82.83756       85.03201
C          2.19784       82.06503       85.67642
O          1.33563       81.62801       84.92638
H          4.50539       84.36953       85.94884
H          3.82779       82.19361       84.26517
H          2.88186       83.69826       84.50135
N          2.08604       81.85241       87.02113
C          0.97868       81.09726       87.62524
C         -0.39085       81.79639       87.55011
O         -1.35144       81.23886       88.06421
C          1.31385       80.70075       89.08661
C          1.46177       81.82676       90.07709
N          1.70866       81.54001       91.37459
O          1.36068       82.99068       89.72699
H          2.83690       82.18921       87.63163
H          0.89060       80.12738       87.08682
H          2.25894       80.11549       89.08697
H          0.50710       80.03324       89.46108
H          1.80430       80.56404       91.69039
H          1.79334       82.29279       92.06861
N         -0.57384       82.98953       86.91345
C         -1.85985       83.66377       86.79459
C         -2.33456       84.36110       88.05772
O         -3.36416       85.01666       87.97993
H          0.21143       83.42521       86.42188
H         -2.62990       82.95491       86.41819
H         -1.75213       84.46818       86.03459
N         -1.65906       84.28928       89.24265
C         -2.07821       84.99276       90.45276
C         -0.94303       85.81302       91.05854
O          0.20913       85.66554       90.67569
C         -2.59978       83.98153       91.50460
C         -3.88139       83.27504       91.03947
O         -1.60323       83.04753       91.84909
H         -0.82935       83.69764       89.30433
H         -2.90097       85.70229       90.21359
H         -2.87564       84.53166       92.43002
H         -1.52469       82.38925       91.10938
H         -3.70591       82.69466       90.10939
H         -4.23496       82.58104       91.83097
H         -4.67824       84.02557       90.84882
N         -1.23454       86.71024       92.04169
C         -0.24676       87.47246       92.80052
C          0.39184       86.58693       93.86354
O         -0.30924       85.93450       94.62479
C         -0.90340       88.78103       93.37340
C         -0.89463       89.85593       92.24519
C         -0.18309       89.31429       94.62615
C         -1.59933       91.16971       92.58493
H         -2.22869       86.83801       92.28603
H          0.57125       87.81545       92.13096
H         -1.94333       88.56069       93.70045
H         -1.37897       89.44146       91.33545
H          0.16312       90.09800       91.98763
H         -0.69700       90.20831       95.02981
H         -0.21999       88.56447       95.44424
H          0.87086       89.55960       94.39995
H         -2.67296       90.98611       92.79176
H         -1.13058       91.68146       93.44934
H         -1.51467       91.85878       91.71681
N          1.74669       86.62359       94.01953
C          2.50862       85.93081       95.04791
C          2.95126       86.92992       96.10835
O          2.57631       88.09159       96.03290
C          3.75312       85.26737       94.41031
C          3.41359       84.26379       93.35129
O          2.82465       84.60700       92.33889
O          3.80365       82.98276       93.49632
H          2.28062       87.25449       93.41495
H          1.88664       85.15902       95.55364
H          4.34514       84.74528       95.18905
H          4.40293       86.04786       93.95990
N          3.73062       86.54167       97.15168
C          4.14198       87.42817       98.23459
C          4.96682       88.63074       97.75307
O          4.53105       89.73890       98.02319
C          4.84295       86.60333       99.33292
C          5.11187       87.38611      100.59196
C          4.19975       87.32884      101.66062
C          6.28072       88.15321      100.72602
C          4.45125       88.02972      102.84220
C          6.53367       88.84543      101.91557
C          5.61939       88.78431      102.97183
H          4.00850       85.54892       97.20576
H          3.21240       87.82498       98.70732
H          5.76689       86.10037       98.98605
H          4.14329       85.77790       99.59377
H          3.29112       86.74490      101.57729
H          7.00111       88.20182       99.91899
H          3.74174       87.98288      103.65842
H          7.44077       89.42582      102.02143
H          5.81609       89.31910      103.89188
N          6.14373       88.53557       97.04709
C          6.92855       89.70644       96.65276
C          6.28551       90.51162       95.53426
O          6.80118       91.57334       95.20704
C          8.26168       89.09999       96.20164
C          7.81204       87.78475       95.59671
C          6.77776       87.30886       96.61669
H          7.10365       90.37857       97.52121
H          8.88360       89.74821       95.54574
H          8.85669       88.84482       97.10701
H          7.28599       88.01945       94.64296
H          8.61630       87.05127       95.37932
H          6.08592       86.60518       96.11029
H          7.26770       86.83303       97.49123
N          5.18716       90.06091       94.87749
C          4.54398       90.78122       93.79051
C          3.58697       91.79426       94.38426
O          3.64737       92.96014       94.02371
C          3.83316       89.78153       92.85635
C          4.84509       88.74376       92.31412
C          4.24310       87.69691       91.42934
O          2.94435       87.72795       91.08695
O          4.94463       86.78217       91.03386
H          4.80367       89.13881       95.12681
H          5.30148       91.29200       93.15225
H          3.36206       90.32620       92.00855
H          3.03674       89.27003       93.42502
H          5.31179       88.20145       93.15952
H          5.65206       89.26000       91.75373
N          2.71263       91.41105       95.35854
C          1.79624       92.30367       96.03411
H          0.76279       91.91521       95.93166
H          2.05249       92.33446       97.11506
H          1.83269       93.33435       95.62850
H          2.71985       90.43655       95.67723
Ca         3.23164       85.35310       89.05429
O          0.75448       85.63063       87.51069
H         -0.11375       86.10206       87.53075
H          0.98371       85.58233       86.54893
O          1.01518       88.14324       89.06538
H          0.43925       88.40734       88.30561
H          1.47832       88.97820       89.32573

Ca 1.0



