%chk=holoCaM.loop3.water3.frame476.chk
%nprocshared=20
%mem=10GB
%nosave
#b3lyp/svp scf=(tight,noincore,xqc) Test 
#IOP(5/87=12) Density=Current Pop=(MK,readradii) iop(6/33=2) iop(6/42=6)

holoCaM.loop3.water3.frame476 

   0  1 
C         30.49736       48.40670       82.37740
C         31.57386       48.26428       83.41217
O         32.58179       47.63020       83.13449
H         29.64512       49.00897       82.75814
H         30.91262       48.91592       81.48250
H         30.12194       47.40355       82.08913
N         31.43817       48.85346       84.63138
C         32.47238       48.79174       85.65538
C         32.64185       47.35786       86.13864
O         31.69413       46.79525       86.67130
C         32.08344       49.72457       86.80845
C         33.16720       49.94249       87.80621
O         34.38602       49.37966       87.69976
O         32.93939       50.68202       88.74568
H         30.58323       49.40243       84.81626
H         33.41429       49.17991       85.20512
H         31.17823       49.33314       87.32322
H         31.83450       50.72619       86.39736
N         33.80344       46.68079       85.91353
C         33.93273       45.24955       86.17611
C         33.94141       44.85844       87.65088
O         33.70604       43.68395       87.89919
C         35.15123       44.63122       85.45512
C         35.05116       44.78924       83.92707
C         36.15837       44.01038       83.20928
C         36.00153       44.12087       81.68608
N         37.00080       43.30669       80.99572
H         34.55208       47.17242       85.40972
H         33.03171       44.76675       85.73249
H         35.16779       43.54205       85.68119
H         36.09871       45.07494       85.82974
H         35.10633       45.86110       83.64002
H         34.07128       44.38290       83.59249
H         36.08620       42.93888       83.49866
H         37.15541       44.39774       83.51353
H         36.10740       45.18454       81.37604
H         34.98735       43.76901       81.39095
H         36.88225       42.30012       81.25587
H         36.86657       43.40329       79.96325
H         37.96427       43.62570       81.24678
N         34.20393       45.72918       88.67604
C         34.09992       45.31618       90.08514
C         33.07462       46.13650       90.85578
O         32.84302       45.82913       92.01853
C         35.47460       45.32058       90.79743
C         36.06859       46.66923       91.09581
O         35.48590       47.69556       90.80110
O         37.24346       46.74166       91.74895
H         34.47867       46.69719       88.45495
H         33.74890       44.26381       90.13750
H         36.19416       44.72808       90.19373
H         35.35705       44.81103       91.77898
N         32.42232       47.19247       90.29159
C         31.44595       47.98884       91.00185
C         32.04734       48.71322       92.18213
O         31.55384       48.53534       93.28584
H         32.59718       47.45361       89.31236
H         30.60452       47.33827       91.32874
H         31.03160       48.75490       90.31038
N         33.07681       49.59513       92.00890
C         33.56485       50.46134       93.08097
C         33.20191       51.92593       92.81392
O         33.49075       52.75083       93.67297
C         35.08356       50.26144       93.37305
C         36.10961       50.63063       92.27345
N         37.23956       51.36727       92.83231
O         35.53859       51.38412       91.26478
H         33.47150       49.70896       91.06663
H         33.04677       50.20215       94.02925
H         35.27463       49.20414       93.65874
H         35.30747       50.87005       94.27611
H         37.75932       50.75939       93.50207
H         37.88570       51.64153       92.05706
N         32.56000       52.32924       91.67135
C         32.15915       53.70218       91.39513
C         32.93227       54.33524       90.24634
O         32.68695       55.49349       89.95703
H         32.32383       51.64096       90.94559
H         32.33288       54.34804       92.28351
H         31.07009       53.71894       91.17770
N         33.95036       53.66965       89.62396
C         34.93192       54.31074       88.75259
C         35.23236       53.43513       87.55079
O         35.53040       52.26840       87.74340
C         36.22182       54.47116       89.58710
C         35.96351       55.36932       90.77444
C         35.88489       54.83529       92.07182
C         35.76417       56.74646       90.58720
C         35.59997       55.66292       93.16081
C         35.49404       57.57560       91.67947
C         35.40601       57.03462       92.97050
O         35.13384       57.82033       94.03159
H         34.15756       52.71129       89.91019
H         34.60657       55.32013       88.42169
H         37.05661       54.88900       88.98345
H         36.53810       53.46354       89.93618
H         36.01865       53.77703       92.24072
H         35.82144       57.17704       89.59526
H         35.52496       55.23557       94.15297
H         35.34767       58.63621       91.51992
H         34.99282       58.77367       93.94268
N         35.26462       53.95298       86.28456
C         35.66756       53.15028       85.13071
C         37.05381       53.60823       84.70308
O         37.21095       54.71448       84.20872
C         34.61946       53.22982       83.98402
C         33.23413       52.76530       84.50232
C         35.07269       52.37777       82.77947
C         32.10778       52.89316       83.47516
H         35.07956       54.95660       86.14620
H         35.74202       52.08050       85.42473
H         34.53939       54.29002       83.65606
H         32.94336       53.38958       85.37447
H         33.29870       51.70916       84.83675
H         36.06723       52.70383       82.41166
H         35.12960       51.30576       83.06180
H         34.37619       52.48549       81.92470
H         32.27297       52.22850       82.60377
H         31.14789       52.59133       83.94511
H         32.01940       53.94516       83.13024
N         38.12270       52.79841       84.94700
C         39.50845       53.14723       84.65311
C         39.80676       53.09711       83.16312
O         38.92864       52.78449       82.37087
C         40.43887       52.15512       85.38977
O         40.25207       50.84906       84.90596
H         37.94475       51.91480       85.43974
H         39.72425       54.16085       85.05613
H         40.22682       52.21560       86.48355
H         41.50730       52.42581       85.26731
H         40.04096       50.27088       85.68399
N         41.07474       53.33983       82.72547
C         41.52171       53.09772       81.35943
C         41.40361       51.61847       81.03139
O         40.86903       51.28406       79.98581
C         42.98296       53.53136       81.19688
H         41.77583       53.65431       83.41373
H         40.92108       53.70395       80.64433
H         43.31706       53.35714       80.15124
H         43.07918       54.61612       81.41612
H         43.64818       52.96705       81.88474
N         41.88661       50.67309       81.89261
C         41.79636       49.23471       81.63973
C         40.36305       48.69298       81.61249
O         40.20595       47.52460       81.28471
C         42.59742       48.46853       82.70133
H         42.35768       50.99532       82.75234
H         42.26728       49.03579       80.65156
H         43.65315       48.81483       82.70287
H         42.16419       48.63761       83.71113
H         42.59362       47.37846       82.48646
N         39.27759       49.45784       81.93590
C         37.89515       48.98123       81.87922
C         37.08443       49.72566       80.82157
O         35.93483       49.36133       80.61477
C         37.22602       49.14533       83.26053
C         37.89554       48.27993       84.33417
C         37.26333       48.50209       85.67878
O         36.74893       47.57322       86.27320
O         37.28083       49.71819       86.25184
H         39.42398       50.42430       82.24090
H         37.86278       47.90745       81.59067
H         36.15538       48.84661       83.19816
H         37.27442       50.21742       83.55468
H         38.97310       48.52548       84.41091
H         37.80025       47.20920       84.04645
N         37.60186       50.75824       80.09757
C         36.85706       51.43417       79.05975
H         35.93455       51.88427       79.48095
H         37.47963       52.24261       78.61763
H         36.59558       50.71431       78.25555
H         38.55235       51.08953       80.27132
Ca        35.59300       50.01428       89.46585
O         37.94140       46.45248       88.47505
H         38.37793       45.91159       89.17840
H         38.68908       46.78571       87.91774
O         38.88349       49.17556       90.76632
H         38.54338       48.50039       90.12811
H         39.81257       48.89167       90.95634
O         38.60587       51.71116       88.91492
H         38.67902       52.64335       88.58975
H         39.25705       51.65837       89.65886

Ca 1.0



