%chk=holoCaM.loop4.water3.frame31.chk
%nprocshared=20
%mem=10GB
%nosave
#b3lyp/svp scf=(tight,noincore,xqc) Test 
#IOP(5/87=12) Density=Current Pop=(MK,readradii) iop(6/33=2) iop(6/42=6)

holoCaM.loop4.water3.frame31 

   -3  1 
C         89.68720      101.67611       30.12892
C         89.23221      102.89325       29.38312
O         88.14583      103.37913       29.65873
H         90.63107      101.90593       30.66663
H         88.92323      101.36786       30.87583
H         89.85673      100.83913       29.42165
N         90.02095      103.44443       28.41569
C         89.65836      104.66266       27.69445
C         90.68321      104.95314       26.60420
O         91.85860      105.06179       26.92929
C         89.62262      105.86740       28.66986
C         89.07110      107.11967       28.04779
O         88.57596      107.10423       26.93265
O         89.08336      108.26615       28.75194
H         90.91074      102.97145       28.19176
H         88.65360      104.51613       27.24079
H         90.65343      106.06199       29.03828
H         88.99118      105.65955       29.55466
N         90.31086      105.11577       25.29759
C         91.27802      105.38552       24.23024
C         91.10568      106.76250       23.58337
O         91.97785      107.12103       22.80348
C         91.25113      104.25489       23.15201
C         89.90493      104.21792       22.37380
C         91.57445      102.89603       23.80146
C         89.88866      103.21641       21.21576
H         89.31338      105.03977       25.05723
H         92.30362      105.40103       24.66028
H         92.06110      104.47410       22.42009
H         89.71830      105.21902       21.92984
H         89.06249      103.97910       23.05470
H         91.67608      102.09884       23.03780
H         92.54335      102.95138       24.34122
H         90.78077      102.60032       24.52004
H         89.98133      102.17300       21.57843
H         88.92214      103.29557       20.67390
H         90.71163      103.43632       20.50275
N         90.01725      107.56613       23.79945
C         89.82695      108.84162       23.09569
C         89.41693      110.01499       23.99851
O         89.23918      111.10373       23.46936
C         88.85206      108.64370       21.91143
C         87.45895      108.22766       22.27669
O         87.10487      108.05246       23.55618
O         86.63464      108.04254       21.39653
H         89.25418      107.21567       24.39101
H         90.78191      109.15371       22.61957
H         89.27481      107.86250       21.24228
H         88.78975      109.58957       21.33151
N         89.28841      109.90328       25.35382
C         88.99142      111.03618       26.22924
C         87.58881      111.62238       26.11685
O         87.32854      112.60136       26.80143
H         89.49690      109.00655       25.80378
H         89.73829      111.83552       26.03613
H         89.11332      110.71244       27.28600
N         86.62701      111.08091       25.31961
C         85.26376      111.60851       25.20923
C         84.54015      111.73020       26.54944
O         83.96098      112.77879       26.79827
C         84.41815      110.79539       24.19120
C         84.36885      109.29788       24.37799
O         85.08968      108.68954       25.33873
O         83.73859      108.62440       23.58183
H         86.87206      110.25433       24.76402
H         85.31207      112.63768       24.78634
H         84.85527      110.96097       23.18222
H         83.38237      111.20072       24.17869
N         84.52046      110.71381       27.45246
C         83.77655      110.74070       28.70144
C         82.77806      109.59955       28.79485
O         82.14707      109.47814       29.83457
H         85.07472      109.87724       27.26468
H         83.22612      111.69674       28.83413
H         84.50140      110.64384       29.53771
N         82.57789      108.72402       27.76353
C         81.65447      107.59721       27.81591
C         82.41115      106.28852       27.63777
O         83.62178      106.29775       27.46697
C         80.58545      107.75541       26.70965
C         79.70772      108.99557       26.92865
C         78.60637      109.07159       25.90110
N         78.88900      109.21042       24.58474
O         77.44109      109.01014       26.26449
H         83.09305      108.84404       26.88372
H         81.14141      107.54366       28.80081
H         79.91022      106.87449       26.71238
H         81.08240      107.80333       25.71524
H         80.31884      109.92188       26.88128
H         79.25035      108.92763       27.94077
H         79.86303      109.27408       24.25603
H         78.12818      109.26004       23.89062
N         81.72898      105.10978       27.66572
C         82.33176      103.79796       27.47529
C         81.79797      103.22242       26.17778
O         80.59205      103.18373       25.97708
C         82.02758      102.89461       28.69920
C         82.47839      101.44161       28.46565
C         82.73847      103.44423       29.94745
H         80.70910      105.13397       27.81272
H         83.43800      103.86981       27.38767
H         80.93056      102.88335       28.88348
H         83.56784      101.39150       28.25311
H         82.25600      100.82402       29.36192
H         81.92687      100.99271       27.61272
H         82.50108      102.82164       30.83545
H         83.83979      103.43132       29.80102
H         82.42337      104.48684       30.16051
N         82.67347      102.73735       25.25520
C         82.29783      102.22771       23.94191
C         82.51422      100.72357       23.92165
O         83.08545      100.19518       24.86562
C         83.21425      102.96768       22.93053
C         83.01097      102.81497       21.44348
N         83.88709      103.40888       20.59918
O         82.07040      102.19174       20.98499
H         83.67484      102.71377       25.49934
H         81.22416      102.43629       23.74548
H         84.26421      102.67469       23.15746
H         83.11036      104.04955       23.13210
H         84.69045      103.94269       20.96355
H         83.77084      103.32993       19.57868
N         82.03196       99.94974       22.90917
C         82.31118       98.52097       22.82029
C         83.76353       98.26520       22.42999
O         84.23934       97.15999       22.64882
C         81.29163       97.81752       21.89796
C         81.27943       98.33442       20.47614
C         82.31987       98.02725       19.58401
C         80.20498       99.12405       20.02726
C         82.28432       98.50019       18.26825
C         80.17808       99.60612       18.71680
C         81.21331       99.29381       17.83151
O         81.16563       99.75705       16.56640
H         81.41718      100.37860       22.21073
H         82.14738       98.08733       23.83310
H         80.29475       98.00219       22.35731
H         81.44026       96.71620       21.89518
H         83.15061       97.40968       19.89836
H         79.39115       99.37872       20.69531
H         83.08824       98.24710       17.58899
H         79.34872      100.22080       18.38933
H         81.85513       99.55554       15.91811
N         84.53224       99.23874       21.84866
C         85.96093       99.07340       21.58088
C         86.78308       99.16837       22.86944
O         87.98696       98.96087       22.81364
C         86.45531      100.14906       20.58517
C         85.77553      100.01215       19.21256
C         86.29070      101.04415       18.25107
O         86.85300      100.70029       17.22358
O         86.12472      102.35487       18.51083
H         84.09318      100.13469       21.59377
H         86.12953       98.07853       21.11117
H         87.55158      100.03112       20.43337
H         86.26867      101.16290       21.00632
H         84.67662      100.13738       19.30435
H         85.97988       98.99598       18.80738
N         86.20117       99.50201       24.05798
C         86.89839       99.65032       25.32818
C         86.36534       98.67226       26.37136
O         86.87865       98.68049       27.48270
C         86.63819      101.06968       25.86950
C         87.05918      102.19793       24.91707
C         86.56571      103.53179       25.41029
O         85.94853      103.63002       26.45787
O         86.74433      104.62758       24.66095
H         85.20197       99.70250       24.07539
H         87.98964       99.47976       25.20192
H         87.15019      101.21521       26.84715
H         85.53985      101.15482       26.03733
H         86.59804      102.03693       23.92043
H         88.16408      102.21280       24.80088
N         85.31696       97.83415       26.12048
C         84.75842       96.97973       27.14455
H         83.90299       96.40376       26.73091
H         85.52758       96.27075       27.51390
H         84.38515       97.60075       27.98783
H         84.86812       97.80691       25.19612
Ca        85.73316      106.53020       25.32193
O         86.05506      108.08277       28.63937
H         85.40037      108.01110       29.37788
H         86.57121      108.90182       28.84340
O         84.44147      106.14635       22.49322
H         85.37615      105.87697       22.67336
H         83.99694      106.10244       23.37695
O         86.23058      105.31537       28.71501
H         85.75293      104.46611       28.88068
H         86.49269      105.62758       29.61655

Ca 1.0



