%chk=holoCaM.loop2.water2.frame356.chk
%nprocshared=20
%mem=10GB
%nosave
#b3lyp/svp scf=(tight,noincore,xqc) Test 
#IOP(5/87=12) Density=Current Pop=(MK,readradii) iop(6/33=2) iop(6/42=6)

holoCaM.loop2.water2.frame356 

   -2  1 
C          8.35140       -0.35266       94.25598
C          8.66502       -1.72898       94.76399
O          8.90146       -2.62892       93.97399
H          7.35122       -0.03600       94.61765
H          9.11421        0.35847       94.64222
H          8.36884       -0.32034       93.14672
N          8.71376       -1.94634       96.10272
C          9.12318       -3.20786       96.70965
C          8.17107       -4.36240       96.41157
O          6.98071       -4.14055       96.24084
C          9.21776       -2.99453       98.23666
C          9.71116       -4.19288       98.97680
O         10.80884       -4.66016       98.72284
O          8.94277       -4.74913       99.93266
H          8.51303       -1.14210       96.71891
H         10.13570       -3.45947       96.32601
H          8.21596       -2.71347       98.63036
H          9.91691       -2.15871       98.44645
N          8.63506       -5.64552       96.50641
C          7.78246       -6.83239       96.50261
C          8.58650       -8.03787       96.98953
O          8.66403       -9.04807       96.30451
C          7.15435       -7.07496       95.12054
H          9.64131       -5.77537       96.69096
H          6.96964       -6.67995       97.24599
H          6.48402       -7.96149       95.16305
H          6.54532       -6.20707       94.79775
H          7.94373       -7.26081       94.36101
N          9.21768       -7.96700       98.20016
C         10.03317       -9.04205       98.78244
C         10.59046       -8.73314      100.18710
O         10.95278       -9.68187      100.86905
C         11.19580       -9.46247       97.84966
C         12.01737       -8.28698       97.39680
O         12.61082       -7.48565       98.29461
O         12.13526       -8.04477       96.20624
H          9.07312       -7.09689       98.71943
H          9.36178       -9.91800       98.91816
H         10.79641       -9.97343       96.95029
H         11.84508      -10.20183       98.36700
N         10.71521       -7.46971      100.68917
C         11.18351       -7.16526      102.03060
C         12.60926       -7.59497      102.25711
O         12.87137       -8.32614      103.20100
H         10.47785       -6.66102      100.11724
H         10.50479       -7.62402      102.78117
H         11.14913       -6.06147      102.17508
N         13.59036       -7.13537      101.43589
C         15.01174       -7.39675      101.63000
C         15.78061       -6.09495      101.85603
O         17.00046       -6.13741      101.93692
C         15.55573       -8.25182      100.46206
C         15.49588       -7.65757       99.07769
N         15.87577       -8.41120       98.02131
O         15.09994       -6.51846       98.89248
H         13.31215       -6.54266      100.64220
H         15.17587       -8.01419      102.54015
H         14.96270       -9.19266      100.44458
H         16.61327       -8.52290      100.67030
H         16.20247       -9.37917       98.15442
H         15.82945       -8.03668       97.06616
N         15.12655       -4.90636      102.03940
C         15.78836       -3.64696      102.33631
C         16.51916       -3.02380      101.16656
O         17.03890       -1.93235      101.35123
H         14.09794       -4.88372      102.05346
H         16.47224       -3.77768      103.20250
H         15.00849       -2.91100      102.63264
N         16.59699       -3.62112       99.94167
C         17.24679       -3.00517       98.79252
C         16.22462       -2.91863       97.63104
O         15.99421       -4.19872       97.12494
C         18.53824       -3.79522       98.40786
C         19.55886       -3.82147       99.55309
O         18.26104       -5.11004       97.98654
H         16.17760       -4.54500       99.80453
H         17.55562       -1.96634       99.04240
H         19.02930       -3.27583       97.55897
H         17.92727       -5.62433       98.76638
H         20.47692       -4.35234       99.22265
H         19.83197       -2.78793       99.85136
H         19.14627       -4.35490      100.43618
N         16.62135       -1.94540       96.59258
C         15.99785       -2.06427       95.25515
C         16.73501       -3.09300       94.40451
O         17.95229       -3.03292       94.29836
C         15.94515       -0.64687       94.58627
C         14.79931        0.16919       95.25513
C         15.72740       -0.72227       93.05938
C         14.62010        1.59753       94.73505
H         17.65618       -1.82115       96.51238
H         14.94294       -2.39403       95.33432
H         16.92307       -0.13814       94.73727
H         14.97882        0.22492       96.34991
H         13.83433       -0.35991       95.08993
H         14.76853       -1.21833       92.81517
H         15.74435        0.28611       92.60042
H         16.56073       -1.27061       92.57420
H         13.78492        2.08169       95.28565
H         15.54481        2.18854       94.89129
H         14.34134        1.61032       93.66132
N         16.01830       -4.00693       93.68343
C         16.61338       -4.96545       92.75610
C         16.42985       -4.47868       91.32935
O         15.85468       -3.42016       91.13149
C         15.96673       -6.35571       92.93241
C         16.14520       -6.89812       94.31738
O         15.59674       -6.25970       95.36383
O         16.75927       -7.93722       94.49843
H         14.98880       -3.96082       93.71784
H         17.70953       -5.04439       92.92833
H         16.42202       -7.07095       92.21561
H         14.87760       -6.29683       92.71312
N         16.94011       -5.18161       90.27840
C         16.87473       -4.71155       88.89844
C         15.43287       -4.52452       88.41310
O         15.14679       -3.42261       87.96992
C         17.71464       -5.61708       87.96990
C         17.78010       -5.08768       86.55869
C         18.39933       -3.85397       86.28849
C         17.23410       -5.82849       85.49712
C         18.47035       -3.37256       84.97860
C         17.30410       -5.34091       84.18886
C         17.92281       -4.11500       83.92952
H         17.44446       -6.05987       90.47353
H         17.37099       -3.71502       88.87010
H         17.32864       -6.64723       87.97022
H         18.75345       -5.68004       88.36106
H         18.83486       -3.26840       87.08835
H         16.75171       -6.78049       85.68130
H         18.95261       -2.42473       84.77717
H         16.88003       -5.91507       83.37563
H         17.97956       -3.74107       82.91573
N         14.45796       -5.49357       88.46765
C         13.06618       -5.26367       88.08178
C         12.46734       -4.00884       88.69044
O         11.88099       -3.20658       87.97758
C         12.32916       -6.49152       88.64652
C         13.36848       -7.56695       88.49496
C         14.63156       -6.84686       88.96321
H         12.99866       -5.23840       86.97127
H         12.16907       -6.38734       89.74437
H         11.34380       -6.69680       88.17673
H         13.15564       -8.51954       89.02520
H         13.46058       -7.77725       87.40426
H         14.71912       -6.81574       90.07039
H         15.47644       -7.39477       88.51951
N         12.57420       -3.79980       90.02845
C         11.95520       -2.68748       90.74046
C         12.51935       -1.34507       90.29810
O         11.78793       -0.36521       90.31767
C         12.13831       -2.88000       92.25729
C         11.46889       -4.18720       92.75325
C         11.78340       -4.46944       94.18780
O         12.52308       -3.60035       94.88949
O         11.44797       -5.52858       94.69161
H         13.11794       -4.49062       90.56665
H         10.86041       -2.69314       90.54206
H         11.70341       -2.01859       92.81125
H         13.22857       -2.91928       92.46872
H         11.85714       -5.05803       92.19074
H         10.37258       -4.14855       92.59850
N         13.80720       -1.22451       89.87512
C         14.37045        0.02582       89.41648
H         15.42692       -0.12960       89.10600
H         13.79957        0.39897       88.53992
H         14.34638        0.77892       90.23122
H         14.41209       -2.04922       89.86300
Ca        13.81625       -4.28347       96.56228
O         13.47050       -3.52846       99.62222
H         13.12653       -4.45014       99.71852
H         13.16954       -3.06591      100.44353
O         12.45274       -1.83848       97.39472
H         12.28269       -1.56883       96.45857
H         12.06998       -1.10456       97.93561

Ca 1.0



