%chk=holoCaM.loop1.water2.frame51.chk
%nprocshared=20
%mem=10GB
%nosave
#b3lyp/svp scf=(tight,noincore,xqc) Test 
#IOP(5/87=12) Density=Current Pop=(MK,readradii) iop(6/33=2) iop(6/42=6)

holoCaM.loop1.water2.frame51 

   0  1 
C         70.58596      103.71072       38.01863
C         69.77859      104.96810       37.94329
O         70.06885      105.91544       38.66041
H         71.40177      103.80997       38.76488
H         69.92120      102.87522       38.32733
H         71.02092      103.48291       37.02401
N         68.71549      105.03179       37.09692
C         67.82414      106.18074       37.02470
C         67.21010      106.40986       38.39907
O         66.56316      105.51475       38.92312
C         66.78240      105.94081       35.91129
C         65.76099      107.02738       35.79654
O         64.57627      106.74768       35.83484
O         66.13468      108.30341       35.62460
H         68.52113      104.21026       36.50238
H         68.41364      107.07169       36.73176
H         66.25715      104.97581       36.07869
H         67.32656      105.87644       34.94256
N         67.42655      107.58904       39.05253
C         67.01698      107.86227       40.42743
C         65.85814      108.85962       40.47310
O         65.32946      109.08971       41.55179
C         68.26655      108.38748       41.19382
C         68.07847      108.54904       42.71543
C         69.32923      109.07952       43.44567
C         69.68360      110.53084       43.06799
N         70.77897      111.03820       43.89618
H         67.93348      108.33219       38.55816
H         66.66053      106.92045       40.89801
H         68.56107      109.35798       40.74018
H         69.10363      107.67074       41.03916
H         67.83025      107.55008       43.13467
H         67.24771      109.24176       42.94805
H         70.19940      108.41265       43.25965
H         69.10550      109.05748       44.53477
H         68.79243      111.17924       43.22210
H         69.98101      110.59073       41.99946
H         71.63638      110.45476       43.76347
H         70.99213      112.02366       43.61761
H         70.49997      111.03146       44.90463
N         65.39759      109.48028       39.34689
C         64.29777      110.44274       39.33377
C         63.13159      110.00771       38.44794
O         62.13864      110.72023       38.41092
C         64.81355      111.85620       38.96166
C         65.58658      112.02356       37.66181
O         65.95565      113.14179       37.35071
O         65.92555      110.97028       36.88340
H         65.85541      109.27567       38.45344
H         63.86167      110.53560       40.35420
H         65.48569      112.19288       39.78186
H         63.94073      112.54570       38.95540
N         63.14496      108.83784       37.75033
C         62.01350      108.35487       36.97402
C         61.66641      109.23841       35.79971
O         60.51198      109.61689       35.66219
H         63.96760      108.22435       37.80101
H         61.13051      108.21942       37.63478
H         62.26841      107.35651       36.56214
N         62.61691      109.56576       34.88462
C         62.33850      110.25873       33.62834
C         62.81643      109.41546       32.43618
O         62.80371      109.91609       31.32028
C         62.93040      111.69311       33.65242
C         64.41477      111.78028       33.77893
O         65.02153      112.98141       33.82830
O         65.08203      110.77110       33.82666
H         63.58702      109.27354       35.07487
H         61.24640      110.41693       33.49506
H         62.48671      112.24095       34.51135
H         62.64156      112.22427       32.71996
N         63.20098      108.10618       32.59072
C         63.63265      107.24656       31.49549
C         65.03483      107.53626       30.98829
O         65.45474      106.86809       30.05459
H         63.12238      107.65457       33.51169
H         62.89417      107.31100       30.66640
H         63.64386      106.19393       31.85233
N         65.81393      108.50879       31.53934
C         67.13705      108.88317       31.05596
C         68.19066      108.80275       32.19976
O         67.72745      108.97111       33.52479
C         67.05455      110.25959       30.35215
C         66.14837      110.18969       29.10468
O         66.62584      111.26834       31.22995
H         65.43726      109.05546       32.31370
H         67.49213      108.17501       30.27474
H         68.06413      110.53440       29.97986
H         65.63835      111.21414       31.30336
H         65.10266      109.93417       29.38076
H         66.14206      111.16768       28.58107
H         66.52034      109.41513       28.39930
N         69.49780      109.40960       31.90574
C         70.57307      109.10264       32.87013
C         71.63426      110.19236       32.75334
O         72.34470      110.25658       31.75982
C         71.13566      107.62743       32.74365
C         70.18518      106.63196       33.48095
C         72.56887      107.48901       33.30510
C         70.62647      105.16575       33.48019
H         69.80814      109.13456       30.94442
H         70.17456      109.21542       33.88553
H         71.21850      107.36300       31.66638
H         69.18124      106.65426       33.02164
H         70.08915      106.94261       34.54538
H         72.59676      107.70473       34.38472
H         72.97129      106.47067       33.13294
H         73.27739      108.15735       32.77668
H         69.86450      104.55860       34.01492
H         70.72438      104.78777       32.44221
H         71.58139      105.02414       34.02663
N         71.76946      111.10381       33.76594
C         72.80577      112.13493       33.82319
C         74.16153      111.51374       34.12036
O         74.24310      110.30931       34.29581
C         72.48986      113.17457       34.94631
C         71.22037      113.98265       34.66304
O         72.43748      112.56428       36.21466
H         71.09049      111.05643       34.53792
H         72.84342      112.68154       32.85458
H         73.29691      113.93366       34.98784
H         71.52058      112.22009       36.37364
H         71.31687      114.52331       33.69817
H         70.34208      113.31545       34.61918
H         71.06297      114.72678       35.47325
N         75.26961      112.28945       34.24582
C         76.56095      111.79998       34.72957
C         76.44373      111.29275       36.16492
O         76.92935      110.21045       36.45238
C         77.63304      112.91421       34.65518
C         77.94343      113.26187       33.19101
O         77.19902      114.05511       35.35416
H         75.17599      113.29552       34.03490
H         76.92177      110.96130       34.09066
H         78.56935      112.52841       35.12048
H         77.93102      114.72378       35.31055
H         77.04556      113.64996       32.66762
H         78.74240      114.03052       33.14298
H         78.30516      112.35642       32.65740
N         75.77414      112.02355       37.10412
C         75.59721      111.61673       38.50313
C         75.04772      110.20620       38.59040
O         75.64162      109.37277       39.26242
C         74.65269      112.61654       39.22345
C         75.33146      113.98701       39.39833
C         74.38080      115.05234       39.96203
C         75.10412      116.37695       40.28114
N         75.78181      116.95397       39.11680
H         75.32449      112.89349       36.78652
H         76.57682      111.62126       39.02980
H         74.39010      112.23829       40.23675
H         73.70855      112.71597       38.64259
H         75.70256      114.34805       38.41994
H         76.19703      113.85830       40.08381
H         73.92018      114.68490       40.90486
H         73.56604      115.23885       39.22749
H         75.84927      116.20782       41.08978
H         74.35047      117.10267       40.65969
H         75.11129      117.07346       38.32374
H         76.17002      117.88866       39.37904
H         76.58474      116.35304       38.82268
N         73.93253      109.86249       37.90411
C         73.35173      108.52346       37.90629
C         74.35091      107.51316       37.35113
O         74.69307      106.57428       38.05586
C         72.01466      108.56090       37.13341
C         71.00692      109.44864       37.90495
C         69.72137      109.70749       37.18797
O         69.48849      109.20191       36.10739
O         68.81271      110.52973       37.74558
H         73.49138      110.59742       37.33378
H         73.11163      108.21988       38.95012
H         71.59180      107.53866       37.02035
H         72.19103      108.98917       36.12409
H         71.44402      110.44642       38.09850
H         70.77903      108.97654       38.88451
N         74.90314      107.67084       36.11976
C         75.92267      106.78870       35.59212
H         76.81288      106.79899       36.25769
H         75.53221      105.75426       35.50352
H         76.24138      107.13899       34.58564
H         74.61621      108.46389       35.54824
Ca        67.31200      110.72250       35.03359
O         68.17408      113.65689       35.86799
H         68.37681      113.89528       36.80739
H         68.23860      114.51257       35.37511
O         68.86630      112.56507       32.72979
H         68.38691      111.72922       32.94583
H         68.21725      113.28174       32.94093

Ca 1.0



