%chk=holoCaM-CaMKII.loop3.water2.frame133.chk
%nprocshared=20
%mem=10GB
%nosave
#b3lyp/svp scf=(tight,noincore,xqc) Test 
#IOP(5/87=12) Density=Current Pop=(MK,readradii) iop(6/33=2) iop(6/42=6)

holoCaM-CaMKII.loop3.water2.frame133 

   0  1 
C         36.13155       33.59997       73.89176
C         37.31604       33.22289       74.73110
O         37.36853       32.09642       75.20230
H         35.20393       33.51237       74.49485
H         36.21420       34.64312       73.51952
H         36.06709       32.91871       73.01766
N         38.31013       34.12436       74.96260
C         39.49673       33.83421       75.75166
C         39.48588       34.74374       76.96398
O         40.30966       35.64124       77.07779
C         40.74007       34.01462       74.85953
C         42.01522       33.55190       75.50953
O         43.06124       33.63780       74.89112
O         42.01911       33.01152       76.74327
H         38.22704       35.07139       74.56056
H         39.49389       32.77975       76.10603
H         40.83593       35.07990       74.55726
H         40.60941       33.40908       73.93995
N         38.52290       34.56635       77.90777
C         38.37889       35.41793       79.08271
C         39.62180       35.33658       79.95905
O         40.21533       36.37184       80.22850
C         37.09794       35.05804       79.87655
C         35.82608       35.24104       79.01563
C         34.53970       35.00213       79.81964
C         33.26174       35.19496       78.97701
N         33.11707       34.18113       77.92826
H         37.85960       33.79036       77.76610
H         38.24991       36.47293       78.74811
H         37.03002       35.74034       80.75284
H         37.15021       34.01187       80.24954
H         35.85469       34.53607       78.16418
H         35.80092       36.27794       78.61439
H         34.51254       35.73845       80.65235
H         34.54004       33.98050       80.25732
H         33.25313       36.21132       78.52364
H         32.38507       35.12095       79.65781
H         33.11703       33.22444       78.35105
H         32.20504       34.32836       77.43815
H         33.87826       34.25804       77.21799
N         40.09095       34.13726       80.41693
C         41.28700       34.01416       81.26216
C         42.56881       34.55032       80.62339
O         43.53334       34.74592       81.35034
C         41.49097       32.55895       81.73222
C         41.54618       31.57906       80.58823
O         40.68673       30.71526       80.50765
O         42.49204       31.64535       79.62889
H         39.55964       33.28917       80.16865
H         41.10791       34.63627       82.16797
H         40.62593       32.28807       82.37798
H         42.40925       32.47412       82.35207
N         42.65151       34.84617       79.29792
C         43.77956       35.53866       78.70084
C         45.09849       34.80554       78.78747
O         46.01922       35.35305       79.37813
H         41.85334       34.63998       78.68963
H         43.87713       36.53008       79.19727
H         43.56597       35.72731       77.62663
N         45.29427       33.61178       78.15268
C         46.61455       32.98089       78.05534
C         47.13258       32.93632       76.61885
O         48.27201       32.52693       76.43803
C         46.63722       31.57337       78.69657
C         45.78733       30.51737       78.02568
N         45.84036       29.23972       78.46583
O         45.06559       30.79475       77.08228
H         44.49394       33.17770       77.67227
H         47.35774       33.58720       78.61744
H         46.33565       31.65147       79.76276
H         47.68914       31.21171       78.66973
H         46.45554       28.97889       79.25013
H         45.27946       28.50498       78.01112
N         46.37650       33.33121       75.55113
C         46.85995       33.32081       74.17914
C         46.13539       32.32352       73.29513
O         46.45770       32.27486       72.11910
H         45.41482       33.66104       75.69745
H         47.94001       33.06757       74.13172
H         46.73739       34.34259       73.75853
N         45.16033       31.49172       73.77442
C         44.47631       30.51151       72.92798
C         43.26350       29.89352       73.61791
O         43.03869       30.12348       74.79542
C         45.43519       29.38905       72.44696
C         45.99226       28.53384       73.56973
C         46.91256       29.05753       74.49652
C         45.60638       27.18587       73.68496
C         47.43190       28.25194       75.51435
C         46.12318       26.38372       74.70740
C         47.03983       26.91489       75.62514
O         47.55207       26.15159       76.61170
H         44.88205       31.57963       74.75565
H         44.07636       31.06032       72.04744
H         46.28101       29.80166       71.86048
H         44.86771       28.74418       71.74254
H         47.24559       30.08265       74.43072
H         44.90036       26.75354       72.98706
H         48.14449       28.66773       76.21597
H         45.81173       25.34947       74.78375
H         47.31175       25.22024       76.72004
N         42.39959       29.12464       72.88798
C         41.17925       28.54848       73.44760
C         41.10712       27.05021       73.20273
O         41.90843       26.50508       72.45939
C         39.92493       29.26389       72.85486
C         39.81706       29.08320       71.31450
C         39.94200       30.74751       73.25837
C         38.54478       29.67965       70.71067
H         42.58701       28.99091       71.88541
H         41.16527       28.69047       74.54897
H         39.02159       28.81169       73.31220
H         39.80714       27.99740       71.07881
H         40.68840       29.54256       70.80275
H         40.80708       31.26932       72.79756
H         39.01064       31.26220       72.95065
H         40.01266       30.83986       74.36314
H         37.64496       29.23446       71.18517
H         38.52094       30.78194       70.82651
H         38.51921       29.45978       69.62224
N         40.12463       26.33104       73.81532
C         39.86466       24.91620       73.57554
C         38.41256       24.73975       73.14690
O         37.69261       25.72112       73.05243
C         40.16543       24.12263       74.85891
O         39.34447       24.55140       75.91011
H         39.51498       26.81665       74.48878
H         40.52261       24.51995       72.77223
H         41.23311       24.28010       75.13104
H         40.00450       23.03704       74.67635
H         39.56100       23.96885       76.68387
N         37.90106       23.50132       72.89846
C         36.48613       23.27732       72.60841
C         35.63063       23.75908       73.76572
O         34.67828       24.49329       73.54078
C         36.21960       21.78792       72.36919
H         38.52952       22.68682       72.95813
H         36.19817       23.81573       71.67740
H         36.48362       21.18593       73.26449
H         35.14427       21.62939       72.13483
H         36.81930       21.43173       71.50511
N         35.95585       23.41304       75.04397
C         35.20648       23.83199       76.22302
C         35.00415       25.33413       76.26491
O         33.86478       25.75806       76.40279
C         35.92409       23.36685       77.49625
H         36.80010       22.83588       75.18489
H         34.20559       23.34469       76.20686
H         35.33936       23.65701       78.39544
H         36.02781       22.26067       77.49102
H         36.93678       23.81883       77.56628
N         36.04887       26.20251       76.13172
C         35.86289       27.65117       76.17777
C         34.87799       28.10256       75.11394
O         33.85190       28.66686       75.46800
C         37.19210       28.42233       76.02070
C         38.16975       28.13854       77.17027
C         39.32889       29.09266       77.17339
O         39.12131       30.29112       77.28165
O         40.59876       28.64527       77.18711
H         36.99268       25.81640       75.98651
H         35.44155       27.91921       77.17365
H         36.94023       29.50552       76.04061
H         37.67209       28.19678       75.04858
H         38.53510       27.09100       77.13167
H         37.63875       28.28914       78.13452
N         35.11734       27.87095       73.79417
C         34.20281       28.25026       72.73655
H         33.29435       28.75907       73.12233
H         34.71808       28.93607       72.03279
H         33.88402       27.34032       72.18589
H         35.98309       27.39207       73.51896
Ca        42.04612       30.20295       77.94589
O         43.15872       27.31010       76.43236
H         43.87845       27.86085       76.03492
H         43.63463       26.64716       76.99264
O         43.09234       28.15132       79.95416
H         42.55059       27.36140       79.70351
H         42.62252       28.53771       80.73529

Ca 1.0



