%chk=holoCaM.loop4.water3.frame90.chk
%nprocshared=20
%mem=10GB
%nosave
#b3lyp/svp scf=(tight,noincore,xqc) Test 
#IOP(5/87=12) Density=Current Pop=(MK,readradii) iop(6/33=2) iop(6/42=6)

holoCaM.loop4.water3.frame90 

   -3  1 
C         88.13367        3.03901       38.99495
C         87.46010        2.71531       37.69677
O         88.03101        1.95909       36.92679
H         89.11085        3.52673       38.79456
H         87.51276        3.71097       39.62105
H         88.31117        2.09471       39.55324
N         86.24654        3.25650       37.37363
C         85.56239        2.91945       36.12918
C         84.34193        3.80515       35.92146
O         83.48727        3.83148       36.79372
C         85.09197        1.44381       36.16067
C         84.72727        0.92812       34.79745
O         85.08691        1.62322       33.69937
O         84.24243       -0.18381       34.68642
H         85.81791        3.93421       38.02134
H         86.28380        3.08079       35.30177
H         84.23590        1.34388       36.86354
H         85.89192        0.76887       36.52618
N         84.18800        4.53548       34.77523
C         83.03178        5.40517       34.54463
C         82.14976        4.92717       33.38986
O         81.07877        5.50919       33.23396
C         83.48095        6.89287       34.38329
C         84.28586        7.14082       33.07839
C         84.27362        7.33223       35.63131
C         84.64192        8.61306       32.84467
H         84.91090        4.47827       34.05244
H         82.36911        5.37118       35.43553
H         82.55814        7.51356       34.33271
H         83.67403        6.81333       32.21081
H         85.22502        6.55600       33.08250
H         84.50062        8.41649       35.60912
H         83.67823        7.14492       36.54954
H         85.23157        6.77356       35.70865
H         85.33278        8.99419       33.62398
H         85.15851        8.71865       31.86741
H         83.72326        9.23704       32.82813
N         82.49497        3.91322       32.53739
C         81.62833        3.45932       31.44502
C         81.44765        1.93573       31.36517
O         80.71736        1.49648       30.49182
C         82.08183        4.06638       30.09553
C         83.45853        3.70222       29.62154
O         84.26260        2.91778       30.34960
O         83.86034        4.14088       28.55621
H         83.42986        3.48782       32.62489
H         80.60203        3.86418       31.59424
H         82.04031        5.17361       30.18289
H         81.35601        3.76256       29.31014
N         82.02975        1.06775       32.25126
C         81.77844       -0.37186       32.22862
C         82.34477       -1.12536       31.03492
O         82.08025       -2.31650       30.94686
H         82.59919        1.43243       33.02087
H         80.67917       -0.53600       32.26956
H         82.21478       -0.83542       33.13840
N         83.11615       -0.53238       30.07752
C         83.57087       -1.23926       28.88027
C         84.49145       -2.43111       29.14885
O         84.68932       -3.22792       28.24252
C         84.24094       -0.25453       27.90461
C         85.66717        0.10485       28.25730
O         86.05292        0.58318       29.46133
O         86.52917       -0.05732       27.40781
H         83.31738        0.47084       30.15676
H         82.64409       -1.61595       28.39197
H         83.62221        0.66635       27.83426
H         84.25429       -0.71218       26.89018
N         85.12882       -2.58211       30.34450
C         85.99737       -3.70253       30.67764
C         87.44813       -3.29928       30.89493
O         88.21142       -4.14914       31.33150
H         84.99876       -1.86350       31.06349
H         85.98492       -4.48670       29.88926
H         85.60217       -4.16442       31.60751
N         87.92623       -2.06826       30.53662
C         89.34388       -1.70862       30.57732
C         89.55936       -0.29715       31.11988
O         88.96830        0.63715       30.59710
C         89.92603       -1.77691       29.15114
C         89.85725       -3.19956       28.56877
C         90.52108       -3.27107       27.21883
N         89.82665       -3.65722       26.12313
O         91.70603       -2.99023       27.11506
H         87.28679       -1.40741       30.08379
H         89.92359       -2.43397       31.19083
H         90.99455       -1.46945       29.20046
H         89.38528       -1.07302       28.47992
H         88.79604       -3.51707       28.48360
H         90.37890       -3.90711       29.24932
H         88.82893       -3.90644       26.18710
H         90.29101       -3.71195       25.20452
N         90.46115       -0.06373       32.12059
C         90.80788        1.27656       32.61132
C         91.35711        2.15863       31.48936
O         92.41107        1.86579       30.94220
C         91.81922        1.17196       33.80237
C         92.53134        2.49434       34.13364
C         91.09197        0.68505       35.06701
H         90.94422       -0.87766       32.53071
H         89.89212        1.76499       32.99536
H         92.62260        0.45122       33.53204
H         93.22762        2.35013       34.98694
H         93.15165        2.83529       33.27885
H         91.80240        3.28054       34.39620
H         90.59834       -0.29247       34.89807
H         91.80602        0.57505       35.91056
H         90.31908        1.42801       35.36794
N         90.67275        3.28519       31.12476
C         91.13925        4.26105       30.14101
C         92.21108        5.16342       30.75127
O         92.47126        5.06944       31.93991
C         89.92604        5.12102       29.69413
C         90.18941        6.06250       28.54703
N         90.56591        5.58763       27.33754
O         90.04268        7.26496       28.70406
H         89.75921        3.45406       31.56430
H         91.53033        3.70873       29.25915
H         89.54500        5.69013       30.57130
H         89.12311        4.44503       29.35528
H         90.68133        4.57633       27.18007
H         90.73461        6.23401       26.55303
N         92.86654        6.08136       29.98669
C         93.85016        7.03027       30.51447
C         93.24910        8.12203       31.40516
O         94.02962        8.86765       31.98109
C         94.66401        7.64251       29.35043
C         93.80448        8.35148       28.32559
C         93.18228        9.57914       28.61136
C         93.61352        7.76718       27.06112
C         92.37955       10.20306       27.65159
C         92.80363        8.38666       26.10870
C         92.18409        9.60497       26.39804
O         91.40623       10.18981       25.46566
H         92.69194        6.06404       28.97489
H         94.57564        6.45729       31.13486
H         95.18252        6.78778       28.86232
H         95.45940        8.32512       29.72114
H         93.32008       10.06155       29.56931
H         94.07653        6.81868       26.81763
H         91.90898       11.14981       27.88421
H         92.65579        7.91466       25.14574
H         90.95974       11.03339       25.62391
N         91.90169        8.27274       31.59132
C         91.32561        9.25131       32.52279
C         90.85312        8.56692       33.79334
O         90.80565        9.20047       34.83843
C         90.18274       10.07383       31.87780
C         88.91459        9.24560       31.57446
C         87.83566       10.09566       30.96796
O         87.33398       11.14295       31.65065
O         87.38982        9.82682       29.86384
H         91.26645        7.63442       31.09900
H         92.11529        9.97089       32.83098
H         90.55949       10.54572       30.94421
H         89.89723       10.88614       32.58327
H         88.50807        8.81076       32.51262
H         89.15479        8.41489       30.88249
N         90.45422        7.26898       33.75742
C         90.02316        6.50075       34.91132
C         91.22278        6.26688       35.81331
O         91.13814        6.54682       37.00039
C         89.36768        5.18661       34.41794
C         88.11240        5.51115       33.56291
C         87.45672        4.31835       32.93201
O         87.86029        3.19016       33.14134
O         86.42297        4.50116       32.08969
H         90.46081        6.78169       32.85465
H         89.23225        7.04760       35.47254
H         89.06943        4.55710       35.28465
H         90.09520        4.62144       33.79954
H         88.38312        6.17790       32.72139
H         87.36624        6.04284       34.19058
N         92.40219        5.82524       35.28834
C         93.61988        5.64801       36.05329
H         94.39812        6.34048       35.66480
H         93.47658        5.85236       37.13396
H         93.98519        4.60759       35.93163
H         92.46183        5.64571       34.27940
Ca        85.29026        0.80586       31.59974
O         86.44017       -1.75783       33.28278
H         85.46892       -1.60810       33.19508
H         86.51268       -2.67410       33.64562
O         87.96537        0.36591       34.06173
H         88.04629       -0.30914       34.77975
H         87.63736        1.17097       34.52805
O         87.07515        3.11499       29.50305
H         87.75139        2.55032       29.05070
H         86.59124        3.55804       28.76256

Ca 1.0



