%chk=holoCaM-CaMKII.loop3.water1.frame379.chk
%nprocshared=20
%mem=10GB
%nosave
#b3lyp/svp scf=(tight,noincore,xqc) Test 
#IOP(5/87=12) Density=Current Pop=(MK,readradii) iop(6/33=2) iop(6/42=6)

holoCaM-CaMKII.loop3.water1.frame379 

   0  1 
C         70.76643       73.18264       51.81464
C         71.10184       73.40489       50.36807
O         72.25171       73.69250       50.06835
H         69.69567       72.91944       51.94810
H         71.38620       72.35561       52.21871
H         70.97354       74.10902       52.39084
N         70.13438       73.30554       49.41378
C         70.37111       73.52829       47.99420
C         69.58688       74.75525       47.57401
O         68.38246       74.79585       47.78657
C         69.95047       72.27673       47.19735
C         70.28092       72.35092       45.72635
O         70.90121       73.42445       45.19934
O         70.00284       71.40956       45.00138
H         69.17053       73.08247       49.70830
H         71.45468       73.69521       47.80231
H         68.85871       72.10623       47.31922
H         70.48686       71.39675       47.61186
N         70.22140       75.80788       46.98528
C         69.55584       77.05882       46.63545
C         68.35911       76.79879       45.73611
O         67.24869       77.12225       46.13425
C         70.57997       78.02737       46.00380
C         70.00453       79.42609       45.75127
C         71.10665       80.38207       45.26533
C         70.61861       81.83084       45.09938
N         69.62933       81.97081       44.03018
H         71.23099       75.71950       46.79963
H         69.19293       77.52375       47.58028
H         70.97825       77.60560       45.05582
H         71.42850       78.12972       46.71740
H         69.59007       79.82029       46.70474
H         69.18863       79.35492       45.00250
H         71.54027       80.01786       44.30823
H         71.91689       80.39476       46.02785
H         71.49845       82.46623       44.85401
H         70.19292       82.19706       46.06024
H         69.37466       82.98068       43.93754
H         70.03359       81.64160       43.12353
H         68.76097       81.43505       44.25141
N         68.50700       76.16694       44.53916
C         67.38529       75.76480       43.69565
C         67.36548       74.25338       43.60222
O         68.41646       73.66769       43.39152
C         67.42356       76.45664       42.31239
C         68.56727       76.13965       41.38060
O         69.53213       75.26470       41.70305
O         68.60605       76.68099       40.28789
H         69.45699       75.90720       44.24070
H         66.42120       76.09335       44.14315
H         67.41470       77.55476       42.48492
H         66.48648       76.18904       41.77632
N         66.22603       73.54232       43.83547
C         66.21004       72.08873       43.84588
C         66.15747       71.45297       42.46462
O         65.27196       70.63394       42.25651
H         65.36551       74.04260       44.10623
H         65.30815       71.74917       44.40399
H         67.08640       71.71420       44.41653
N         67.06002       71.73459       41.47428
C         67.06235       71.01771       40.20578
C         67.66074       69.61985       40.35286
O         67.61318       68.88224       39.37797
C         67.78261       71.82172       39.08909
C         69.27233       72.08905       39.33568
N         69.85452       72.86958       38.25236
O         69.97645       70.89796       39.45881
H         67.76352       72.46379       41.60196
H         66.00734       70.92643       39.86065
H         67.27204       72.80308       38.97842
H         67.67569       71.27614       38.12585
H         69.88097       72.27778       37.38947
H         70.84685       73.07341       38.51014
N         68.25503       69.18835       41.51423
C         68.82316       67.85449       41.66214
C         70.29217       67.81493       42.06784
O         70.80106       66.70561       42.13040
H         68.28524       69.80285       42.33892
H         68.73065       67.28419       40.71303
H         68.24141       67.30524       42.43251
N         71.03427       68.92390       42.39130
C         72.45114       68.84721       42.78621
C         73.00136       70.17491       43.42247
O         73.13111       71.25797       42.53652
C         73.36161       68.24458       41.66595
C         73.46801       69.01115       40.36496
C         74.32579       70.11849       40.24476
C         72.75538       68.57930       39.23068
C         74.44687       70.79546       39.02748
C         72.87856       69.25712       38.01336
C         73.72135       70.36749       37.90730
O         73.83391       71.00680       36.72533
H         70.55121       69.82482       42.43867
H         72.48176       68.11820       43.62593
H         72.98765       67.23068       41.42633
H         74.38700       68.05984       42.05173
H         74.91692       70.45142       41.08704
H         72.10245       67.71698       39.28575
H         75.11221       71.64644       38.95414
H         72.32257       68.91463       37.14930
H         74.41219       71.77414       36.60795
N         74.32026       69.92856       44.02775
C         74.87012       71.07578       44.78653
C         76.24538       71.39780       44.23194
O         77.10175       70.52341       44.19349
C         74.93291       70.79263       46.32330
C         73.49504       70.64671       46.88750
C         75.69105       71.92422       47.05807
C         73.44429       70.25112       48.36472
H         74.33679       69.04675       44.59179
H         74.23384       71.98128       44.66362
H         75.49585       69.84676       46.48902
H         72.95210       69.85836       46.32583
H         72.94644       71.60429       46.75253
H         75.78840       71.71516       48.14062
H         76.73196       72.01283       46.68389
H         75.17866       72.89979       46.91692
H         73.96769       69.28420       48.51914
H         73.89550       71.02591       49.01567
H         72.38594       70.13606       48.67843
N         76.53641       72.67421       43.84966
C         77.84365       73.12464       43.39270
C         78.44549       74.07206       44.42296
O         77.83218       74.29058       45.45892
C         77.68998       73.80123       42.01948
O         77.19550       72.88842       41.07545
H         75.80410       73.39444       43.94042
H         78.54680       72.26895       43.28624
H         78.67057       74.16615       41.65172
H         77.02381       74.69306       42.08864
H         76.20614       72.89520       41.15577
N         79.66594       74.64137       44.23258
C         80.33005       75.48780       45.22360
C         79.53455       76.73911       45.55957
O         79.27451       76.97294       46.72994
C         81.72021       75.89495       44.72695
H         80.16817       74.42919       43.35509
H         80.47895       74.89785       46.15700
H         81.64976       76.48607       43.78913
H         82.23726       76.50455       45.49910
H         82.33113       74.98781       44.53328
N         79.12530       77.59202       44.57716
C         78.40386       78.83859       44.83658
C         77.16450       78.60314       45.67108
O         76.98106       79.28724       46.66980
C         78.00762       79.50446       43.51320
H         79.33049       77.33587       43.59990
H         79.07011       79.54499       45.38045
H         78.91400       79.72283       42.91009
H         77.33560       78.84386       42.92405
H         77.48104       80.46351       43.71060
N         76.28801       77.62034       45.33595
C         75.07757       77.32801       46.09574
C         75.41053       77.04716       47.55137
O         74.86743       77.71502       48.41990
C         74.31847       76.13619       45.47734
C         73.85426       76.44101       44.04314
C         73.01282       75.33188       43.49898
O         73.47044       74.21064       43.35789
O         71.74298       75.57947       43.14587
H         76.51884       77.04096       44.51514
H         74.40012       78.21199       46.05921
H         73.42117       75.93916       46.10031
H         74.95392       75.22330       45.48476
H         74.71447       76.58724       43.35869
H         73.25245       77.37536       44.04773
N         76.32912       76.09962       47.88273
C         76.73546       75.80773       49.24174
H         77.81915       76.02632       49.35227
H         76.17942       76.40998       49.98990
H         76.56454       74.73193       49.45293
H         76.79183       75.57654       47.13369
Ca        71.45748       71.43814       41.04784
O         72.14812       74.73385       40.30278
H         71.49599       75.12271       39.66706
H         72.85116       74.33685       39.73026

Ca 1.0



