%chk=holoCaM-CaMKII.loop2.water2.frame202.chk
%nprocshared=20
%mem=10GB
%nosave
#b3lyp/svp scf=(tight,noincore,xqc) Test 
#IOP(5/87=12) Density=Current Pop=(MK,readradii) iop(6/33=2) iop(6/42=6)

holoCaM-CaMKII.loop2.water2.frame202 

   -2  1 
C        -12.62725       79.19575       21.15146
C        -13.42167       79.87358       22.22878
O        -13.98001       79.18256       23.06968
H        -11.81937       78.59414       21.62298
H        -13.28173       78.52397       20.56084
H        -12.15324       79.93354       20.47063
N        -13.46929       81.23397       22.30552
C        -14.08094       81.91611       23.43582
C        -15.59812       81.82322       23.42087
O        -16.18929       82.05099       22.37426
C        -13.68347       83.41087       23.48951
C        -13.77122       83.94129       24.90589
O        -13.51114       85.10993       25.13222
O        -13.98540       83.06399       25.91862
H        -12.95172       81.78860       21.60633
H        -13.64706       81.42942       24.33204
H        -14.29709       84.00173       22.77253
H        -12.61764       83.53012       23.20008
N        -16.29457       81.60366       24.57320
C        -17.74918       81.58291       24.64916
C        -18.32761       82.71558       25.50231
O        -19.54648       82.82004       25.52936
C        -18.18783       80.22793       25.21590
H        -15.77277       81.46041       25.44123
H        -18.18513       81.69564       23.63329
H        -19.29496       80.15300       25.25528
H        -17.80108       79.40522       24.57779
H        -17.78519       80.09359       26.24469
N        -17.55750       83.56995       26.25014
C        -18.14059       84.59597       27.12630
C        -17.48860       85.97829       27.01221
O        -17.95503       86.88773       27.68526
C        -18.11333       84.08806       28.58567
C        -16.74226       83.89315       29.17622
O        -16.62367       83.39357       30.42038
O        -15.73835       84.19374       28.55532
H        -16.54258       83.41923       26.28561
H        -19.21388       84.73642       26.87291
H        -18.64716       83.11348       28.61523
H        -18.66652       84.79815       29.23699
N        -16.41039       86.21978       26.21334
C        -15.76067       87.51812       26.10856
C        -15.20115       88.00841       27.42974
O        -15.54112       89.11340       27.82858
H        -16.02515       85.46335       25.63629
H        -16.47943       88.26422       25.70183
H        -14.91875       87.44043       25.38714
N        -14.31873       87.25402       28.14974
C        -13.69019       87.71727       29.38984
C        -12.16458       87.81145       29.26506
O        -11.50397       88.02637       30.27230
C        -14.13351       86.86352       30.60353
C        -13.63178       85.44663       30.67371
N        -13.88824       84.71091       31.77991
O        -12.97720       84.96525       29.76578
H        -14.07651       86.31806       27.79551
H        -14.04023       88.74231       29.63907
H        -15.24410       86.85332       30.66106
H        -13.75544       87.37163       31.51721
H        -14.43055       85.10569       32.56123
H        -13.52638       83.75512       31.87686
N        -11.54106       87.73601       28.05157
C        -10.10585       87.90017       27.85588
C         -9.24049       86.71890       28.27639
O         -8.04311       86.79562       28.04145
H        -12.11190       87.65787       27.19815
H         -9.76393       88.83141       28.35989
H         -9.92881       88.03274       26.76659
N         -9.74145       85.60880       28.89370
C         -8.92652       84.46085       29.29686
C         -9.52962       83.14728       28.82596
O        -10.71397       82.92624       29.03310
C         -8.79087       84.39152       30.83439
C         -8.05514       85.60696       31.40550
O        -10.03334       84.20821       31.46904
H        -10.73683       85.58589       29.12976
H         -7.88916       84.54763       28.90223
H         -8.16121       83.50363       31.07021
H        -10.55795       85.04265       31.36320
H         -8.62947       86.53870       31.22188
H         -7.91778       85.47537       32.49874
H         -7.05348       85.70136       30.93292
N         -8.73285       82.16965       28.30647
C         -9.21677       80.81627       28.02794
C         -9.74343       80.20327       29.32479
O         -9.02301       80.17487       30.31316
C         -8.09194       79.91670       27.41490
C         -7.59315       80.50464       26.06498
C         -8.60790       78.47330       27.20613
C         -6.40950       79.74454       25.45947
H         -7.73113       82.37715       28.18316
H        -10.03576       80.86458       27.27793
H         -7.24052       79.88093       28.13073
H         -7.24701       81.54694       26.21059
H         -8.42621       80.52444       25.32915
H         -7.81350       77.80324       26.82529
H         -8.93086       78.02531       28.16499
H         -9.46363       78.45958       26.49697
H         -5.55979       79.72457       26.17458
H         -6.68213       78.70755       25.18033
H         -6.07974       80.25786       24.53196
N        -10.98398       79.64213       29.35710
C        -11.56576       78.97253       30.51712
C        -11.46983       77.46079       30.32541
O        -10.98980       77.03946       29.28613
C        -13.01729       79.47105       30.68345
C        -13.05670       80.91624       31.12667
O        -13.28400       81.97202       30.30083
O        -12.89297       81.14862       32.31377
H        -11.51907       79.60917       28.48096
H        -10.97801       79.19053       31.43651
H        -13.54129       78.87193       31.46123
H        -13.58164       79.32930       29.73884
N        -11.80511       76.57372       31.31209
C        -11.53798       75.13817       31.17557
C        -12.31538       74.50206       30.02565
O        -11.65828       73.91121       29.18097
C        -11.74472       74.34431       32.49223
C        -11.40487       72.87738       32.29820
C        -12.41170       71.89634       32.37116
C        -10.08445       72.47870       32.01896
C        -12.10265       70.54776       32.16171
C         -9.77964       71.12830       31.81775
C        -10.78794       70.16410       31.88640
H        -12.17259       76.93450       32.20619
H        -10.45190       75.03058       30.94997
H        -12.77869       74.42990       32.85369
H        -11.10472       74.76204       33.29843
H        -13.43850       72.17419       32.57360
H         -9.29015       73.21129       31.95838
H        -12.88331       69.79914       32.20895
H         -8.76128       70.82902       31.60493
H        -10.55067       69.12004       31.72464
N        -13.68349       74.53547       29.90421
C        -14.40314       73.88646       28.80832
C        -13.89850       74.32177       27.44642
O        -13.91578       73.54098       26.50553
C        -15.84840       74.37459       28.98912
C        -15.93357       74.56482       30.48340
C        -14.60185       75.24131       30.77671
H        -14.32900       72.78416       28.93911
H        -15.96650       75.39237       28.54868
H        -16.61649       73.70724       28.54277
H        -16.82363       75.12358       30.84202
H        -15.92431       73.55618       30.95847
H        -14.60793       76.31723       30.48919
H        -14.41606       75.14462       31.85346
N        -13.45236       75.59453       27.28906
C        -12.98016       76.16579       26.03832
C        -11.71723       75.45696       25.58609
O        -11.67433       74.97824       24.46234
C        -12.74397       77.68204       26.21531
C        -14.04184       78.38156       26.68264
C        -13.89241       79.84774       26.87522
O        -14.82296       80.47095       27.35765
O        -12.74921       80.48216       26.55655
H        -13.44890       76.19198       28.12587
H        -13.77003       76.06125       25.26111
H        -12.41665       78.11822       25.24633
H        -11.94203       77.85618       26.96316
H        -14.36608       77.99498       27.66753
H        -14.86127       78.20206       25.95549
N        -10.66287       75.31996       26.43871
C         -9.43480       74.62626       26.11414
H         -8.57486       75.31015       26.27182
H         -9.32077       73.75374       26.79291
H         -9.41690       74.26462       25.06604
H        -10.73990       75.69598       27.38788
Ca       -13.50462       82.70141       28.13101
O        -11.43692       84.68955       26.80904
H        -12.11847       85.32334       27.13927
H        -10.93320       85.19770       26.12590
O        -10.97194       82.44243       25.25940
H        -10.78609       81.51104       24.98450
H        -10.41594       82.99892       24.65906

Ca 1.0



