%chk=holoCaM-CaMKII.loop3.water2.frame206.chk
%nprocshared=20
%mem=10GB
%nosave
#b3lyp/svp scf=(tight,noincore,xqc) Test 
#IOP(5/87=12) Density=Current Pop=(MK,readradii) iop(6/33=2) iop(6/42=6)

holoCaM-CaMKII.loop3.water2.frame206 

   0  1 
C         31.66414       76.12843       34.80722
C         32.92775       75.78244       34.09265
O         33.78331       75.14739       34.69511
H         30.80767       75.65870       34.28240
H         31.69840       75.74825       35.85168
H         31.53883       77.23003       34.82958
N         33.12271       76.17667       32.79903
C         34.33507       75.84728       32.07092
C         35.11429       77.12101       31.77213
O         34.64562       77.95475       31.00897
C         33.99985       75.04429       30.79416
C         35.23470       74.40903       30.22629
O         35.17896       73.74949       29.20702
O         36.37883       74.49616       30.92660
H         32.39460       76.73315       32.32502
H         34.96106       75.19390       32.71500
H         33.50674       75.70389       30.04577
H         33.30082       74.21703       31.04504
N         36.29491       77.35585       32.41394
C         37.02046       78.62163       32.33714
C         37.90999       78.75020       31.10541
O         38.40679       79.84977       30.90054
C         37.85062       78.82681       33.63079
C         36.97352       78.97023       34.89687
C         36.25178       80.33345       34.94884
C         35.38601       80.52812       36.20459
N         34.21646       79.64690       36.21284
H         36.59671       76.66363       33.11269
H         36.28167       79.44613       32.26497
H         38.49763       79.72805       33.55673
H         38.52034       77.94612       33.74781
H         37.63630       78.91328       35.78769
H         36.25766       78.12484       34.95496
H         35.60631       80.49090       34.06234
H         37.03248       81.12595       34.94997
H         35.02857       81.58235       36.20982
H         35.99309       80.37119       37.12350
H         34.50257       78.64560       36.28567
H         33.62142       79.88189       37.03991
H         33.65063       79.79394       35.34501
N         38.15627       77.72043       30.23656
C         38.92459       77.90439       28.99775
C         38.07466       77.61890       27.75483
O         38.56872       77.82984       26.65564
C         40.22200       77.05042       28.99853
C         39.93699       75.58093       28.92330
O         39.26764       75.14579       28.00416
O         40.34743       74.72508       29.86817
H         37.77581       76.78641       30.44466
H         39.25036       78.96326       28.91278
H         40.82259       77.28205       29.90498
H         40.82917       77.31481       28.10663
N         36.80285       77.12654       27.84206
C         35.96451       76.85257       26.68904
C         36.49977       75.75130       25.80007
O         36.67788       75.99481       24.61503
H         36.37422       76.95295       28.76050
H         35.82317       77.78870       26.10592
H         34.96420       76.52433       27.04722
N         36.72226       74.49719       26.29294
C         37.08809       73.35469       25.45209
C         36.03044       72.25413       25.49499
O         36.19114       71.26831       24.78938
C         38.49058       72.82105       25.82743
C         38.57685       72.09845       27.15607
N         39.10195       70.85194       27.22527
O         38.19805       72.64315       28.17925
H         36.59772       74.34953       27.30212
H         37.15515       73.68544       24.39341
H         39.19407       73.67936       25.83003
H         38.83015       72.12636       25.02857
H         39.44942       70.37196       26.38253
H         39.17799       70.36517       28.13018
N         34.93635       72.33937       26.30926
C         33.91294       71.31790       26.39903
C         34.03202       70.49331       27.66311
O         33.16015       69.65695       27.85965
H         34.80297       73.15120       26.91939
H         33.96270       70.61437       25.54123
H         32.91928       71.81747       26.35510
N         35.08935       70.60439       28.53201
C         35.24718       69.72110       29.68583
C         35.35107       70.46838       31.00410
O         35.58128       71.66685       31.02681
C         36.50127       68.83874       29.54330
C         36.47377       67.92100       28.34731
C         36.74493       68.39999       27.05414
C         36.21072       66.55421       28.52891
C         36.76841       67.52141       25.96608
C         36.21646       65.68137       27.43994
C         36.50383       66.16042       26.15460
O         36.53170       65.32290       25.09875
H         35.83733       71.28803       28.34663
H         34.36444       69.05029       29.76977
H         36.57316       68.21418       30.45985
H         37.42526       69.45479       29.51052
H         36.95979       69.44494       26.88789
H         35.99433       66.16394       29.51551
H         36.99877       67.89750       24.97687
H         36.00470       64.63211       27.59987
H         36.36102       64.37456       25.19225
N         35.15873       69.77888       32.16315
C         35.22637       70.34150       33.50753
C         36.10748       69.44394       34.36498
O         35.87144       68.24198       34.39948
C         33.79279       70.42566       34.10949
C         32.92855       71.41492       33.28215
C         33.84059       70.87000       35.59051
C         31.44479       71.37552       33.64747
H         34.88934       68.78466       32.08671
H         35.62951       71.37773       33.49834
H         33.33791       69.41147       34.05912
H         32.98215       71.15580       32.20522
H         33.31945       72.45066       33.40336
H         34.41807       70.14784       36.20113
H         34.31112       71.87260       35.68609
H         32.83180       70.90232       36.04353
H         31.26399       71.66291       34.70113
H         30.88985       72.08911       33.00319
H         31.04458       70.35440       33.46971
N         37.07344       69.97393       35.16442
C         37.85796       69.18592       36.10966
C         37.43520       69.51801       37.52762
O         36.55135       70.34246       37.71059
C         39.35609       69.47169       35.90495
O         39.64507       70.81923       36.18301
H         37.20100       70.99645       35.17145
H         37.68555       68.09758       35.96079
H         39.64514       69.19821       34.86356
H         39.97277       68.84022       36.57807
H         39.95109       71.24062       35.33872
N         38.02346       68.91304       38.59361
C         37.72323       69.28487       39.97094
C         38.10837       70.73513       40.20926
O         37.28459       71.49980       40.69035
C         38.48058       68.38071       40.94869
H         38.73194       68.18272       38.41866
H         36.63700       69.14017       40.17383
H         38.17721       67.32302       40.79358
H         39.57836       68.46310       40.80497
H         38.23168       68.66145       41.99509
N         39.35425       71.18105       39.86574
C         39.82097       72.54873       40.09577
C         39.03486       73.62758       39.35276
O         39.29062       74.79511       39.61565
C         41.29923       72.66571       39.70783
H         40.01095       70.50090       39.45277
H         39.73086       72.74954       41.18646
H         41.42436       72.47401       38.61972
H         41.68586       73.68072       39.94104
H         41.90206       71.92564       40.27513
N         38.05096       73.33756       38.45488
C         37.19531       74.35255       37.85419
C         35.89899       74.38489       38.63339
O         35.56870       75.43190       39.17277
C         36.98288       74.08772       36.34910
C         38.30034       74.24419       35.57590
C         38.10988       74.07314       34.09936
O         38.39215       74.98667       33.34321
O         37.66139       72.91033       33.59561
H         37.82901       72.35843       38.25059
H         37.64781       75.36579       37.94918
H         36.25793       74.83343       35.95501
H         36.55654       73.07302       36.19130
H         39.04345       73.50064       35.92803
H         38.70498       75.26356       35.76217
N         35.14903       73.26036       38.79654
C         33.96616       73.20368       39.63022
H         33.10016       72.87014       39.02428
H         34.13771       72.47224       40.44937
H         33.72496       74.18377       40.09266
H         35.44570       72.38741       38.34610
Ca        38.51803       73.88590       30.78561
O         40.82106       71.90796       29.83106
H         40.84496       70.93759       30.02216
H         41.47475       72.30245       30.46125
O         38.65499       70.44782       31.77338
H         38.66934       70.48628       32.76183
H         38.88906       69.50973       31.56042

Ca 1.0



