%chk=holoCaM.loop1.water2.frame12.chk
%nprocshared=20
%mem=10GB
%nosave
#b3lyp/svp scf=(tight,noincore,xqc) Test 
#IOP(5/87=12) Density=Current Pop=(MK,readradii) iop(6/33=2) iop(6/42=6)

holoCaM.loop1.water2.frame12 

   0  1 
C         86.20896       17.13457       25.73638
C         87.41247       16.31551       25.39833
O         88.52540       16.79532       25.54802
H         85.61429       16.61671       26.51723
H         86.50844       18.13656       26.10897
H         85.58955       17.25893       24.82338
N         87.25406       15.04462       24.94340
C         88.37016       14.19312       24.55954
C         88.99100       14.74695       23.28364
O         88.42225       14.55596       22.21634
C         87.83118       12.77074       24.34141
C         88.86190       11.74627       24.03272
O         90.05629       12.00031       24.01471
O         88.43221       10.50916       23.77119
H         86.29305       14.67070       24.88688
H         89.10349       14.16914       25.39837
H         87.09359       12.78125       23.50908
H         87.30029       12.43081       25.25602
N         90.07256       15.57361       23.33748
C         90.51897       16.32194       22.16861
C         91.24671       15.47467       21.13341
O         91.41730       15.97429       20.02921
C         91.37922       17.54895       22.55304
C         90.64057       18.50850       23.50647
C         91.36547       19.85382       23.62342
C         90.61215       20.80612       24.56406
N         91.21882       22.13699       24.55556
H         90.46692       15.79522       24.25597
H         89.60434       16.73140       21.68149
H         91.60130       18.09955       21.61235
H         92.34334       17.23590       23.01170
H         90.54559       18.04845       24.51211
H         89.62252       18.70866       23.10597
H         91.41041       20.31164       22.61088
H         92.40230       19.70593       23.99688
H         90.62443       20.39320       25.59789
H         89.55223       20.89749       24.23679
H         91.15578       22.54813       23.59519
H         90.69764       22.75638       25.21741
H         92.22016       22.08400       24.85122
N         91.73853       14.22524       21.39966
C         92.44459       13.42580       20.39208
C         91.79419       12.05860       20.14206
O         92.29922       11.32404       19.30516
C         93.95265       13.35173       20.71986
C         94.32546       12.60612       21.96742
O         95.50069       12.53938       22.29039
O         93.39601       11.99440       22.72212
H         91.64956       13.84568       22.35351
H         92.40968       13.94531       19.40936
H         94.33318       14.39479       20.80780
H         94.48438       12.87575       19.86693
N         90.62833       11.68745       20.75316
C         89.86738       10.49670       20.38996
C         90.50822        9.18339       20.77976
O         90.76494        8.36928       19.90385
H         90.18362       12.32722       21.42319
H         89.67353       10.51999       19.29519
H         88.88246       10.53408       20.90175
N         90.75456        8.89376       22.08801
C         91.32661        7.62681       22.54902
C         90.51606        6.93783       23.65834
O         90.92575        5.86756       24.08383
C         92.79870        7.86499       22.93599
C         93.05543        8.91813       23.97917
O         94.20678        9.24980       24.20094
O         92.05721        9.52650       24.64505
H         90.56685        9.63274       22.77597
H         91.35677        6.89508       21.71185
H         93.31280        8.20131       22.00977
H         93.27287        6.91287       23.25897
N         89.36563        7.46955       24.16649
C         88.54973        6.84343       25.19904
C         88.58753        7.58835       26.52085
O         87.91158        7.14211       27.43875
H         89.02771        8.35500       23.80362
H         88.89497        5.80970       25.41048
H         87.50200        6.77700       24.83185
N         89.38293        8.67920       26.72808
C         89.63592        9.22691       28.06032
C         89.99033       10.70976       28.04560
O         90.28887       11.28358       27.00655
C         90.81021        8.44551       28.74469
C         90.32690        7.24120       29.54688
O         91.75101        7.99698       27.80001
H         89.96949        9.01750       25.95424
H         88.70493        9.18272       28.66960
H         91.32839        9.08279       29.49628
H         92.00037        8.77044       27.23788
H         91.20138        6.73673       30.01294
H         89.65631        7.58638       30.36307
H         89.80006        6.50301       28.91493
N         89.97712       11.37577       29.23826
C         90.37528       12.75897       29.47292
C         91.60279       12.71239       30.37106
O         91.57080       12.08048       31.41947
C         89.20324       13.59787       30.09940
C         88.20886       14.13979       29.03173
C         89.71671       14.83692       30.87055
C         87.51472       13.09607       28.17135
H         89.69856       10.83959       30.07675
H         90.66411       13.26738       28.53684
H         88.66614       12.97147       30.84556
H         88.74148       14.84349       28.35104
H         87.41075       14.71456       29.55175
H         90.29023       15.51411       30.20547
H         88.86572       15.40619       31.30355
H         90.36057       14.54305       31.72499
H         86.79767       13.60809       27.49454
H         88.24342       12.57873       27.52917
H         86.96483       12.36832       28.80084
N         92.71013       13.42155       30.02467
C         93.93611       13.47906       30.80862
C         93.99663       14.78961       31.56642
O         93.06148       15.57600       31.50748
C         95.17129       13.34413       29.86603
C         95.23250       11.98207       29.17474
O         95.21187       14.39860       28.93050
H         92.65668       14.01907       29.19002
H         93.96594       12.66746       31.56886
H         96.10943       13.40109       30.45277
H         94.66711       14.14572       28.14059
H         94.32891       11.83886       28.55261
H         96.13547       11.93258       28.52795
H         95.29564       11.17174       29.93107
N         95.10446       15.09373       32.29283
C         95.32424       16.38266       32.93381
C         95.22676       17.50277       31.91029
O         94.53002       18.47362       32.16697
C         96.71581       16.41916       33.62330
C         96.77998       15.45609       34.81639
O         97.72491       16.09952       32.69760
H         95.85548       14.39197       32.34451
H         94.55253       16.55865       33.71733
H         96.87722       17.45201       34.01099
H         98.59185       16.35469       33.10727
H         96.00784       15.72931       35.56625
H         96.62070       14.40391       34.50314
H         97.77629       15.52731       35.30185
N         95.92047       17.44586       30.73796
C         95.94807       18.55002       29.78167
C         94.65813       18.69659       28.96908
O         94.56869       19.66069       28.22249
C         97.18413       18.43901       28.86208
C         98.48110       18.39828       29.69703
C         99.73835       18.38857       28.82850
C        100.98673       18.25083       29.71401
N        102.20708       18.26119       28.91118
H         96.50365       16.61539       30.56015
H         96.08831       19.49309       30.35780
H         97.21722       19.33179       28.19900
H         97.11241       17.52827       28.22802
H         98.49384       17.48465       30.32565
H         98.51953       19.28437       30.36894
H         99.78842       19.33479       28.24658
H         99.69791       17.53087       28.12267
H        100.93093       17.29341       30.28050
H        101.02416       19.08680       30.44804
H        103.03096       18.13873       29.54346
H        102.19009       17.47632       28.22031
H        102.29607       19.17479       28.41033
N         93.60706       17.82770       29.08650
C         92.31801       18.02774       28.42047
C         91.22539       18.37934       29.42900
O         90.10785       18.64220       29.00286
C         91.87981       16.76231       27.65577
C         92.85533       16.29690       26.56796
C         92.25672       15.09837       25.82873
O         91.96737       14.04107       26.69230
O         93.11206       14.60906       24.83689
H         93.69389       17.02145       29.71175
H         92.37733       18.87651       27.70506
H         90.89630       16.96288       27.17396
H         91.73749       15.94196       28.38783
H         93.83387       16.02855       27.01413
H         93.00487       17.11623       25.83272
N         91.45458       18.40745       30.77262
C         90.42585       18.74299       31.73085
H         89.58303       18.02484       31.65204
H         90.84072       18.69066       32.76097
H         90.06104       19.77544       31.54828
H         92.37913       18.18030       31.14879
Ca        93.02065       12.43341       25.51816
O         94.12592        9.90006       27.07468
H         94.41731        9.31121       27.81485
H         94.89487        9.91930       26.45580
O         95.88856       12.78625       25.81271
H         96.08216       13.74423       25.65685
H         95.62071       12.44046       24.92492

Ca 1.0



