%chk=holoCaM.loop2.water3.frame475.chk
%nprocshared=20
%mem=10GB
%nosave
#b3lyp/svp scf=(tight,noincore,xqc) Test 
#IOP(5/87=12) Density=Current Pop=(MK,readradii) iop(6/33=2) iop(6/42=6)

holoCaM.loop2.water3.frame475 

   -2  1 
C         -6.72755       56.82064       78.47544
C         -7.76887       57.39306       79.39271
O         -7.44541       58.29549       80.14417
H         -5.89902       56.39563       79.07925
H         -7.14433       56.01357       77.83629
H         -6.32980       57.62094       77.81724
N         -9.04573       56.91900       79.36145
C        -10.15487       57.38126       80.19985
C         -9.92557       57.00506       81.67346
O        -10.47267       56.01112       82.13049
C        -11.45142       56.73041       79.64542
C        -12.72581       57.18932       80.28774
O        -13.77656       56.67628       79.94293
O        -12.73569       58.16389       81.21453
H         -9.24774       56.18579       78.66309
H        -10.28007       58.48256       80.09247
H        -11.37614       55.62619       79.75064
H        -11.54217       56.96674       78.56171
N         -9.10289       57.74469       82.47308
C         -8.77413       57.38809       83.85343
C         -9.94296       57.49639       84.83356
O         -9.77904       57.06894       85.96771
C         -7.62846       58.28011       84.35333
H         -8.64636       58.56778       82.07228
H         -8.40849       56.33804       83.84718
H         -7.30986       57.98089       85.37384
H         -6.75311       58.18641       83.67490
H         -7.94716       59.34576       84.37221
N        -11.12680       58.07930       84.49379
C        -12.27227       58.21218       85.40092
C        -13.50572       57.48835       84.86730
O        -14.53120       57.52135       85.53411
C        -12.54153       59.70742       85.70073
C        -12.45375       60.56752       84.47251
O        -11.56648       61.40227       84.39514
O        -13.25613       60.37231       83.41309
H        -11.22697       58.47245       83.54739
H        -12.06725       57.73309       86.38404
H        -11.74222       60.05321       86.39444
H        -13.51009       59.84325       86.22957
N        -13.46857       56.74816       83.72207
C        -14.56947       55.92383       83.25636
C        -15.80580       56.66705       82.79445
O        -16.75148       55.98168       82.43074
H        -12.59410       56.67329       83.19445
H        -14.85104       55.22137       84.07047
H        -14.21634       55.31377       82.39633
N        -15.91069       58.03010       82.77088
C        -17.15163       58.68948       82.36267
C        -17.50898       58.36742       80.91664
O        -18.68292       58.19471       80.62222
C        -17.14405       60.20411       82.65144
C        -16.32984       61.03124       81.69351
N        -16.90216       62.06468       81.03379
O        -15.14818       60.78741       81.52259
H        -15.11902       58.60796       83.08091
H        -17.95059       58.28544       83.02511
H        -16.77366       60.36532       83.68762
H        -18.19395       60.56783       82.62016
H        -17.89592       62.30044       81.16890
H        -16.34475       62.65147       80.40239
N        -16.52489       58.18511       79.98723
C        -16.75839       57.71065       78.63130
C        -16.21320       58.63153       77.55814
O        -16.29620       58.25201       76.39863
H        -15.54704       58.32620       80.27293
H        -17.84008       57.54625       78.43565
H        -16.24788       56.72896       78.52749
N        -15.67932       59.85672       77.84109
C        -15.21686       60.78625       76.81169
C        -13.79872       61.25946       77.08285
O        -13.49653       61.66254       78.19609
C        -16.15117       62.01238       76.73441
C        -17.56391       61.61511       76.29613
O        -16.20253       62.66337       77.97370
H        -15.65523       60.18289       78.81732
H        -15.24694       60.32105       75.80125
H        -15.73151       62.70246       75.96373
H        -16.52786       63.58545       77.80479
H        -18.02911       60.92547       77.03121
H        -18.19695       62.52295       76.20979
H        -17.52886       61.11881       75.30251
N        -12.90042       61.32774       76.06093
C        -11.57307       61.92509       76.19073
C        -11.68582       63.39580       76.58995
O        -12.35232       64.16168       75.90895
C        -10.77047       61.79057       74.84987
C        -10.45652       60.29415       74.57679
C         -9.46899       62.61960       74.88381
C         -9.65566       60.04267       73.29626
H        -13.19845       60.99182       75.13283
H        -10.99521       61.38148       76.97203
H        -11.38468       62.20040       74.01668
H        -11.40805       59.73043       74.48898
H         -9.88234       59.86944       75.42964
H         -9.70000       63.69489       75.00850
H         -8.80390       62.27887       75.70319
H         -8.92814       62.57158       73.91974
H        -10.18352       60.46623       72.41662
H         -8.63680       60.47664       73.36487
H         -9.52849       58.94992       73.15128
N        -10.92840       63.86034       77.62471
C        -10.74610       65.27121       77.96170
C         -9.34404       65.66825       77.46657
O         -8.66539       64.80890       76.92814
C        -10.91783       65.39903       79.49816
C        -11.04423       66.78128       80.08603
O        -11.11263       66.91485       81.42426
O        -11.15893       67.77179       79.38610
H        -10.33438       63.18804       78.12631
H        -11.50339       65.89103       77.43615
H        -10.07593       64.86307       79.98726
H        -11.84728       64.87778       79.79349
N         -8.83792       66.93307       77.55291
C         -7.49655       67.25489       77.06743
C         -6.41190       66.50257       77.83945
O         -5.50516       66.01021       77.18133
C         -7.22373       68.77260       77.06002
C         -5.89683       69.07866       76.39559
C         -5.68787       68.77331       75.03553
C         -4.85205       69.66081       77.13172
C         -4.45613       69.04071       74.43112
C         -3.62100       69.92498       76.52257
C         -3.42285       69.61475       75.17448
H         -9.40895       67.69290       77.92812
H         -7.45188       66.93869       76.00101
H         -7.24024       69.16316       78.09537
H         -8.02477       69.29430       76.49267
H         -6.47490       68.32795       74.43996
H         -4.98620       69.90114       78.17852
H         -4.30222       68.80107       73.38635
H         -2.81868       70.36816       77.09731
H         -2.46881       69.81886       74.70574
N         -6.40112       66.34220       79.20451
C         -5.39534       65.56002       79.91850
C         -5.31052       64.09742       79.49965
O         -4.38600       63.42174       79.92549
C         -5.88532       65.57568       81.37281
C         -6.60832       66.89584       81.45574
C         -7.35284       66.92610       80.12541
H         -4.42003       66.07876       79.77904
H         -6.67830       64.79927       81.50186
H         -5.09772       65.39154       82.13355
H         -7.26023       67.01815       82.34681
H         -5.83803       67.69882       81.44961
H         -8.25160       66.28082       80.15040
H         -7.62172       67.97414       79.90079
N         -6.28705       63.52998       78.73339
C         -6.34562       62.11804       78.38367
C         -6.10991       61.91962       76.89046
O         -5.99229       60.77976       76.46175
C         -7.71736       61.53445       78.82047
C         -8.06926       61.94844       80.26388
C         -9.36894       61.40397       80.78113
O        -10.54453       61.63023       80.16273
O         -9.37613       60.80428       81.84159
H         -7.06964       64.10623       78.42667
H         -5.53711       61.57483       78.91880
H         -7.70094       60.43053       78.70829
H         -8.50804       61.92778       78.15214
H         -8.16027       63.05296       80.31429
H         -7.24912       61.63148       80.94440
N         -6.00700       62.98016       76.03749
C         -5.69544       62.85066       74.63451
H         -4.68573       62.40534       74.51786
H         -6.45412       62.22507       74.12486
H         -5.68671       63.85944       74.16337
H         -6.14879       63.93267       76.37732
Ca       -12.28309       60.98144       81.45732
O        -14.41780       63.14427       83.21651
H        -15.19758       63.73329       83.05827
H        -14.28255       63.16277       84.19634
O        -11.19816       63.56552       82.44944
H        -10.43805       64.11870       82.75782
H        -11.95464       64.19800       82.36817
O        -13.94173       63.57875       80.29131
H        -14.15593       63.81601       79.35506
H        -14.12171       64.41036       80.79578

Ca 1.0



