%chk=holoCaM-CaMKII.loop3.water1.frame336.chk
%nprocshared=20
%mem=10GB
%nosave
#b3lyp/svp scf=(tight,noincore,xqc) Test 
#IOP(5/87=12) Density=Current Pop=(MK,readradii) iop(6/33=2) iop(6/42=6)

holoCaM-CaMKII.loop3.water1.frame336 

   0  1 
C         22.70776       57.22494       59.30397
C         21.63616       56.18242       59.35299
O         20.76242       56.18666       58.49647
H         23.69269       56.73139       59.17327
H         22.53673       57.92135       58.45538
H         22.70717       57.80560       60.25011
N         21.63098       55.26079       60.35654
C         20.61998       54.22383       60.47041
C         19.74856       54.53577       61.67321
O         20.23151       54.55470       62.79697
C         21.29977       52.84807       60.54404
C         20.33560       51.69985       60.52309
O         20.76959       50.56372       60.55506
O         19.00674       51.89831       60.44719
H         22.35895       55.31593       61.08634
H         19.98327       54.22139       59.55790
H         21.92458       52.78513       61.46154
H         21.96336       52.73527       59.65866
N         18.44621       54.87107       61.46984
C         17.54007       55.33994       62.51004
C         17.26912       54.26755       63.55163
O         17.37097       54.55600       64.73547
C         16.21079       55.80686       61.86753
C         15.42894       56.77911       62.76041
C         14.11983       57.20311       62.07892
C         13.44833       58.35799       62.83294
N         12.17233       58.71537       62.21334
H         18.10740       54.87257       60.49817
H         18.00540       56.23577       62.98028
H         15.58573       54.93233       61.59087
H         16.44291       56.37895       60.94105
H         16.06736       57.67774       62.91590
H         15.20287       56.32658       63.74963
H         13.43996       56.32420       62.03161
H         14.32565       57.54815       61.04121
H         14.12534       59.24236       62.81159
H         13.27448       58.07420       63.89368
H         12.31165       58.96514       61.20705
H         11.50489       57.91364       62.28830
H         11.76786       59.54006       62.71292
N         16.92779       52.99950       63.17077
C         16.57879       51.93568       64.10885
C         17.68038       50.89082       64.26862
O         17.48409       49.96603       65.04608
C         15.18326       51.33442       63.78144
C         14.93922       50.70897       62.39940
O         14.94970       51.65564       61.37108
O         15.87281       49.72101       62.08697
H         16.94361       52.77401       62.16748
H         16.47534       52.35815       65.13243
H         14.42010       52.13191       63.90472
H         14.95758       50.55264       64.53795
N         18.90249       51.02106       63.67214
C         20.03252       50.15649       63.98970
C         19.90667       48.71287       63.54515
O         20.80876       47.94982       63.86217
H         19.08814       51.82750       63.06233
H         20.18840       50.17878       65.09142
H         20.95037       50.56828       63.51704
N         18.85039       48.24780       62.81683
C         18.72565       46.84168       62.43255
C         19.81136       46.36941       61.47013
O         19.86559       45.17244       61.21946
C         17.32877       46.54517       61.83454
C         17.02105       47.25023       60.53132
N         15.83284       47.04418       59.92156
O         17.83202       48.00568       60.01989
H         18.09870       48.89661       62.56389
H         18.80959       46.24055       63.36575
H         16.55606       46.83082       62.58059
H         17.24233       45.45066       61.65974
H         15.13405       46.40822       60.33180
H         15.61269       47.52081       59.03562
N         20.68964       47.23045       60.87675
C         21.74081       46.79622       59.97478
C         21.61845       47.35682       58.57330
O         22.46185       46.99773       57.76584
H         20.62753       48.23427       61.07330
H         21.75496       45.69006       59.88119
H         22.72091       47.10726       60.39730
N         20.64153       48.24078       58.19189
C         20.58444       48.75285       56.82164
C         19.87530       50.09210       56.70328
O         19.29012       50.57804       57.65792
C         20.04908       47.66354       55.85715
C         18.63314       47.18388       56.12080
C         17.51783       47.96201       55.75820
C         18.41790       45.91040       56.68048
C         16.21902       47.46498       55.93700
C         17.12101       45.42503       56.87365
C         16.01774       46.19346       56.49477
O         14.77478       45.69647       56.66444
H         19.97147       48.58865       58.88587
H         21.62713       49.00197       56.52364
H         20.73386       46.79487       55.94358
H         20.11987       47.99066       54.79808
H         17.64847       48.93733       55.30789
H         19.25534       45.28726       56.96711
H         15.36919       48.06260       55.63165
H         16.97396       44.44275       57.30604
H         13.98113       46.18233       56.39840
N         19.97483       50.77616       55.52612
C         19.44539       52.11445       55.30213
C         18.40530       52.01728       54.20461
O         18.70874       51.50526       53.13674
C         20.59052       53.09547       54.89180
C         21.72409       53.11419       55.95268
C         20.02314       54.51834       54.67992
C         22.95018       53.92606       55.51772
H         20.48407       50.33668       54.74526
H         18.98001       52.51712       56.22834
H         21.02565       52.73683       53.93228
H         22.08425       52.07734       56.12069
H         21.34147       53.50819       56.91985
H         20.79959       55.22083       54.31895
H         19.22792       54.51942       53.90858
H         19.59724       54.91382       55.62784
H         22.71455       55.00131       55.39127
H         23.74103       53.84910       56.29308
H         23.35534       53.52551       54.56333
N         17.16303       52.53693       54.39343
C         16.11808       52.51858       53.38056
C         15.94549       53.91389       52.81456
O         16.65597       54.81258       53.22704
C         14.82211       51.95973       53.99311
O         14.36180       52.78001       55.03693
H         16.96802       53.03572       55.26807
H         16.40701       51.86467       52.53000
H         14.99929       50.91753       54.35182
H         14.02360       51.88998       53.22646
H         14.61599       52.34193       55.89074
N         15.05169       54.16162       51.82028
C         14.90577       55.47461       51.19587
C         14.48639       56.53464       52.19919
O         15.14027       57.56543       52.27765
C         13.88814       55.40389       50.05580
H         14.47740       53.37849       51.47411
H         15.87794       55.77099       50.73973
H         14.22520       54.65906       49.30295
H         12.88737       55.10657       50.43299
H         13.81156       56.39270       49.55489
N         13.41239       56.33505       53.01338
C         12.94144       57.31182       53.99401
C         14.04712       57.73722       54.94114
O         14.26398       58.93055       55.09946
C         11.77566       56.72605       54.79919
H         12.91698       55.43237       52.94099
H         12.56248       58.21294       53.46171
H         11.39783       57.47580       55.52718
H         10.94327       56.45145       54.11706
H         12.09603       55.81796       55.35439
N         14.80943       56.80575       55.57674
C         15.90448       57.13914       56.48744
C         16.90265       58.06130       55.80087
O         17.18415       59.12561       56.33380
C         16.58892       55.85167       57.00957
C         15.61207       54.99973       57.84878
C         16.24384       53.74600       58.37983
O         16.69196       52.90236       57.62521
O         16.26515       53.51533       59.69954
H         14.61625       55.81565       55.36640
H         15.49876       57.67873       57.37307
H         17.44938       56.13331       57.65653
H         16.97716       55.26138       56.15183
H         14.73371       54.69522       57.24672
H         15.24653       55.60880       58.70459
N         17.42047       57.74499       54.58332
C         18.30630       58.60640       53.82722
H         19.24120       58.05814       53.59031
H         17.80983       58.89014       52.87381
H         18.56422       59.53654       54.37440
H         17.13828       56.86789       54.14216
Ca        16.50355       50.60773       60.09239
O         14.75547       49.92928       57.63856
H         14.24112       49.08432       57.68021
H         14.14407       50.60900       58.01795

Ca 1.0



