%chk=holoCaM-CaMKII.loop3.water2.frame57.chk
%nprocshared=20
%mem=10GB
%nosave
#b3lyp/svp scf=(tight,noincore,xqc) Test 
#IOP(5/87=12) Density=Current Pop=(MK,readradii) iop(6/33=2) iop(6/42=6)

holoCaM-CaMKII.loop3.water2.frame57 

   0  1 
C          7.32634       53.22678       80.79362
C          8.75201       52.89073       81.08388
O          8.99398       52.02086       81.90737
H          6.64760       52.60486       81.41680
H          7.14774       54.29731       81.01757
H          7.11250       53.02432       79.72314
N          9.75619       53.51398       80.40345
C         11.15167       53.15292       80.58282
C         11.72446       53.75424       81.87209
O         12.31028       54.82837       81.82142
C         12.00055       53.58508       79.35787
C         13.31019       52.85615       79.37184
O         14.15015       53.06541       78.51713
O         13.46852       51.86611       80.26890
H          9.50310       54.18332       79.66035
H         11.18046       52.03925       80.60929
H         12.14136       54.68740       79.34071
H         11.49577       53.29495       78.41380
N         11.54983       53.14193       83.07523
C         11.97793       53.74762       84.33676
C         13.49373       53.74100       84.45020
O         14.09398       54.79525       84.60455
C         11.37005       53.02248       85.55978
C          9.83901       52.90712       85.47497
C          9.24624       52.34866       86.77230
C          7.76830       51.94658       86.62086
N          6.92149       53.04412       86.15139
H         11.05783       52.24140       83.09177
H         11.58886       54.79159       84.37674
H         11.64793       53.60517       86.46668
H         11.78456       51.99719       85.66454
H          9.57191       52.21831       84.64916
H          9.39381       53.90483       85.27069
H          9.36531       53.10663       87.57747
H          9.79990       51.43210       87.07235
H          7.40259       51.59208       87.60959
H          7.69135       51.09783       85.90474
H          7.01613       53.87425       86.77900
H          7.17141       53.30277       85.16956
H          5.92626       52.72374       86.15166
N         14.16820       52.55566       84.37991
C         15.62338       52.40719       84.50192
C         16.42484       53.22095       83.47988
O         17.63162       53.31831       83.65829
C         16.06650       50.90866       84.48890
C         15.54360       50.14599       83.30756
O         16.30132       49.94221       82.22386
O         14.35987       49.85248       83.24677
H         13.58689       51.71994       84.26793
H         15.91113       52.81917       85.49338
H         15.70688       50.38552       85.39934
H         17.17649       50.86071       84.49667
N         15.84717       53.88064       82.43561
C         16.57039       54.82427       81.60007
C         17.70954       54.21386       80.82440
O         18.82691       54.69386       80.95887
H         14.84089       53.77900       82.25153
H         16.95568       55.65152       82.23944
H         15.86518       55.27480       80.86858
N         17.49049       53.19671       79.94358
C         18.52252       52.70432       79.03005
C         18.11504       52.95417       77.57642
O         18.85353       52.56199       76.68432
C         18.84243       51.21584       79.31707
C         17.88837       50.23647       78.68211
N         18.33539       49.22408       77.90460
O         16.69786       50.35853       78.85873
H         16.54162       52.79690       79.88442
H         19.47153       53.25306       79.21098
H         18.87096       51.06983       80.41999
H         19.85719       50.98514       78.93049
H         19.34111       49.08470       77.73786
H         17.66769       48.56321       77.47943
N         16.94481       53.59607       77.26698
C         16.47837       53.84727       75.91799
C         15.50489       52.79592       75.40812
O         15.02295       52.98216       74.30086
H         16.35278       53.98079       78.01249
H         17.33509       53.95004       75.21770
H         15.95212       54.82779       75.91646
N         15.19012       51.65986       76.11236
C         14.30987       50.61480       75.58172
C         13.16563       50.26962       76.52638
O         13.22994       50.55793       77.70763
C         15.09487       49.31100       75.31659
C         16.20588       49.46501       74.30709
C         16.11136       48.83266       73.05651
C         17.35397       50.21759       74.60512
C         17.13694       48.96727       72.11711
C         18.37812       50.35203       73.66667
C         18.27141       49.72854       72.41628
O         19.25138       49.85042       71.49917
H         15.62897       51.49784       77.02447
H         13.86183       50.95095       74.62174
H         14.37002       48.55520       74.94092
H         15.52309       48.91482       76.26209
H         15.24113       48.23939       72.80421
H         17.46527       50.69383       75.56617
H         17.04802       48.47858       71.15554
H         19.25382       50.93836       73.91514
H         20.05062       50.36928       71.66836
N         12.08286       49.59826       76.03807
C         10.95373       49.12374       76.83691
C         10.74646       47.64729       76.53683
O         10.61948       47.29735       75.37179
C          9.66956       49.93396       76.48169
C          9.85280       51.41191       76.91354
C          8.42206       49.32543       77.16650
C          8.71924       52.33647       76.46729
H         12.04665       49.42346       75.02236
H         11.13463       49.26029       77.92599
H          9.51742       49.88726       75.38042
H         10.78368       51.81581       76.46399
H          9.94946       51.46425       78.02107
H          8.26065       48.27767       76.84065
H          8.53048       49.34060       78.27231
H          7.49788       49.86596       76.88535
H          8.94429       53.37350       76.79431
H          8.63342       52.32338       75.36020
H          7.74802       52.05176       76.91752
N         10.60912       46.74025       77.54734
C         10.29201       45.33412       77.30992
C          8.85654       45.03959       77.72164
O          8.17581       45.91765       78.22983
C         11.29235       44.43887       78.05775
O         12.58888       44.68743       77.58974
H         10.65774       47.06875       78.52232
H         10.35441       45.09732       76.22585
H         11.04210       43.36958       77.88034
H         11.23865       44.65213       79.14951
H         13.17892       44.03356       78.04775
N          8.31856       43.81035       77.47488
C          6.93743       43.44437       77.78540
C          6.65814       43.55070       79.26674
O          5.63923       44.11488       79.63870
C          6.64873       42.01674       77.31576
H          8.91765       43.10438       77.02118
H          6.24070       44.11269       77.23023
H          5.58773       41.75807       77.52346
H          6.81476       41.94302       76.21980
H          7.30765       41.28728       77.83212
N          7.54233       43.05096       80.17272
C          7.37682       43.19366       81.61343
C          7.26733       44.65845       82.00133
O          6.32476       45.01546       82.69457
C          8.56272       42.55346       82.34534
H          8.39199       42.58516       79.81670
H          6.45768       42.65527       81.93787
H          8.42548       42.63822       83.44479
H          8.62964       41.47520       82.08563
H          9.51765       43.04687       82.06366
N          8.19202       45.56734       81.57123
C          8.15257       46.98043       81.95455
C          6.88182       47.68240       81.48701
O          6.57736       48.74674       82.00829
C          9.35542       47.76507       81.38314
C         10.72581       47.20660       81.80928
C         11.87800       47.99714       81.24526
O         11.69418       48.98032       80.54381
O         13.13712       47.60377       81.51232
H          8.94916       45.22645       80.96268
H          8.18814       47.02005       83.06641
H          9.28690       48.82126       81.72808
H          9.28738       47.75712       80.27386
H         10.84564       46.16402       81.45342
H         10.79854       47.21306       82.91712
N          6.11921       47.18053       80.47808
C          4.91605       47.82917       80.00829
H          4.16826       47.87836       80.82735
H          5.15029       48.85300       79.64829
H          4.48148       47.24810       79.16598
H          6.40986       46.32219       80.00336
Ca        14.87359       50.18276       80.55410
O         13.94642       47.64778       78.12098
H         14.31885       47.05638       77.41983
H         13.25610       47.09948       78.56899
O         16.22143       47.36360       80.19509
H         16.54340       46.66922       80.82273
H         16.33194       46.95845       79.29858

Ca 1.0



