%chk=holoCaM-CaMKII.loop4.water1.frame391.chk
%nprocshared=20
%mem=10GB
%nosave
#b3lyp/svp scf=(tight,noincore,xqc) Test 
#IOP(5/87=12) Density=Current Pop=(MK,readradii) iop(6/33=2) iop(6/42=6)

holoCaM-CaMKII.loop4.water1.frame391 

   -3  1 
C         66.03392       86.04811       -1.58880
C         66.90047       86.95582       -0.76862
O         67.56237       87.81338       -1.33175
H         65.28599       86.64930       -2.14514
H         66.66702       85.48459       -2.30483
H         65.49408       85.31698       -0.94926
N         66.95094       86.81226        0.58152
C         67.76977       87.64165        1.45553
C         69.24844       87.49016        1.10251
O         69.72054       86.36588        1.00633
C         67.53720       87.19964        2.90990
C         68.20081       88.07862        3.91574
O         68.23814       87.66940        5.18471
O         68.69886       89.14833        3.61216
H         66.37200       86.07209        1.00974
H         67.44138       88.70237        1.36092
H         67.92042       86.16360        3.03093
H         66.45264       87.19741        3.15610
N         70.04258       88.58750        0.93690
C         71.45308       88.53185        0.54448
C         72.38543       88.79536        1.73735
O         73.56334       88.48460        1.63462
C         71.70482       89.55339       -0.62172
C         70.70303       89.32472       -1.78746
C         73.16073       89.51172       -1.13004
C         70.80303       90.36295       -2.91122
H         69.62312       89.50661        1.10202
H         71.68360       87.50136        0.19639
H         71.51700       90.57569       -0.22051
H         69.66848       89.40484       -1.39422
H         70.83721       88.30806       -2.21432
H         73.33743       90.27453       -1.91263
H         73.87861       89.77142       -0.32964
H         73.40348       88.50754       -1.53587
H         70.67098       91.38913       -2.50756
H         71.77227       90.30144       -3.44379
H         70.00568       90.17370       -3.65999
N         71.94087       89.37239        2.88933
C         72.79524       89.69653        4.03642
C         72.32818       89.01096        5.33523
O         72.94216       89.24064        6.36770
C         72.93208       91.23863        4.14419
C         71.63700       91.96778        4.34853
O         71.60908       93.18717        4.35943
O         70.51668       91.26347        4.54987
H         70.95846       89.64833        2.93624
H         73.83103       89.33137        3.86326
H         73.37382       91.59964        3.18922
H         73.63272       91.50477        4.96520
N         71.32982       88.07510        5.33617
C         71.02081       87.20216        6.46689
C         70.21722       87.77391        7.62945
O         69.95419       86.99859        8.53848
H         70.88250       87.83039        4.44366
H         71.96909       86.76671        6.85202
H         70.41880       86.35141        6.07932
N         69.78986       89.06818        7.71241
C         69.06436       89.56488        8.89725
C         67.66034       88.98170        9.09370
O         67.10803       89.16802       10.16945
C         69.03948       91.10755        8.93616
C         68.42339       91.77897        7.74273
O         68.54294       92.98690        7.61693
O         67.84431       91.07838        6.75540
H         70.05432       89.72140        6.96140
H         69.65692       89.25633        9.78750
H         70.10010       91.43821        8.97094
H         68.53834       91.47002        9.85897
N         67.01473       88.28929        8.11681
C         65.70719       87.66803        8.26604
C         64.63753       88.32082        7.40997
O         63.53289       87.80008        7.38753
H         67.46328       88.20057        7.20931
H         65.35337       87.69894        9.31873
H         65.80454       86.59827        7.97780
N         64.86535       89.48597        6.73102
C         63.83955       90.19130        5.96349
C         64.29437       90.42223        4.53044
O         65.45380       90.18689        4.22313
C         63.43350       91.48352        6.71888
C         64.55433       92.52252        6.94543
C         64.86306       93.32982        5.71601
N         63.93043       94.16464        5.20389
O         65.96714       93.26587        5.20093
H         65.78628       89.92154        6.79947
H         62.92765       89.55865        5.90729
H         63.09952       91.14918        7.72568
H         62.55926       91.96732        6.23397
H         65.46177       92.02958        7.34446
H         64.22753       93.24717        7.72115
H         63.00713       94.26108        5.65093
H         64.13945       94.73834        4.37742
N         63.39063       90.80176        3.57591
C         63.73164       90.92829        2.15980
C         63.26965       92.28724        1.63382
O         62.07434       92.52692        1.54949
C         63.09294       89.73956        1.37404
C         63.31837       89.83141       -0.14219
C         63.66500       88.39550        1.86427
H         62.40486       90.92296        3.85076
H         64.83211       90.85426        2.02046
H         61.99492       89.74179        1.55212
H         64.39889       89.79869       -0.38349
H         62.82502       88.97613       -0.65272
H         62.87183       90.75771       -0.55217
H         64.76113       88.35635        1.68620
H         63.47609       88.24514        2.94673
H         63.19280       87.54885        1.32149
N         64.18792       93.22601        1.25847
C         63.86205       94.51985        0.65354
C         63.35414       94.34020       -0.77036
O         63.25071       93.21969       -1.23571
C         65.13804       95.40345        0.59721
C         65.63000       95.78343        1.96626
N         66.86977       95.44056        2.38015
O         64.90721       96.43887        2.70165
H         65.17712       93.01076        1.41260
H         63.09460       95.04579        1.26299
H         64.94048       96.36142        0.07656
H         65.92846       94.87271        0.02356
H         67.50460       94.90305        1.77246
H         67.19649       95.72739        3.31315
N         63.06226       95.42528       -1.54139
C         62.73072       95.35228       -2.96257
C         63.87512       94.73706       -3.76096
O         63.64362       93.75953       -4.45810
C         62.42950       96.77322       -3.49086
C         62.22541       96.81532       -4.98737
C         61.19128       96.08916       -5.60076
C         63.09047       97.58473       -5.78463
C         61.03006       96.13117       -6.98995
C         62.92619       97.62689       -7.16991
C         61.89500       96.89890       -7.77841
O         61.72759       96.92981       -9.11568
H         63.11253       96.35748       -1.10398
H         61.81855       94.72908       -3.09882
H         63.28023       97.43775       -3.22158
H         61.52558       97.16977       -2.98018
H         60.51428       95.48835       -5.00706
H         63.89705       98.15132       -5.33540
H         60.23264       95.56523       -7.45441
H         63.60291       98.22443       -7.76774
H         62.30536       97.44934       -9.69316
N         65.13000       95.27293       -3.72045
C         66.25302       94.75007       -4.50030
C         66.47540       93.27454       -4.23071
O         66.62087       92.50507       -5.17052
C         67.55196       95.56496       -4.24781
C         68.11747       95.48354       -2.81548
C         69.35636       96.31818       -2.66779
O         69.31120       97.52560       -2.84030
O         70.52312       95.73784       -2.32534
H         65.28805       96.08826       -3.11020
H         66.02157       94.87387       -5.58242
H         67.34480       96.62812       -4.49920
H         68.33699       95.19867       -4.94716
H         68.39491       94.43605       -2.58320
H         67.36594       95.83275       -2.07715
N         66.48623       92.81640       -2.95219
C         66.73341       91.43015       -2.58184
C         65.68870       90.51910       -3.21619
O         66.05654       89.51844       -3.81549
C         66.81995       91.29074       -1.03678
C         67.93978       92.19748       -0.46353
C         68.23299       91.98622        0.99467
O         69.38317       91.81177        1.36029
O         67.26201       92.06976        1.91745
H         66.29451       93.49995       -2.20739
H         67.73141       91.12300       -2.96583
H         67.05167       90.23409       -0.79556
H         65.85311       91.56125       -0.56245
H         67.65638       93.25972       -0.57621
H         68.87917       92.03227       -1.03226
N         64.37262       90.86165       -3.20978
C         63.34875       90.09370       -3.88514
H         62.36750       90.60948       -3.78941
H         63.58719       90.00989       -4.96756
H         63.26698       89.08288       -3.43698
H         64.09114       91.73112       -2.75453
Ca        68.39985       91.88607        4.76925
O         69.00054       94.68983        4.78621
H         69.29623       94.42937        3.87708
H         69.68967       95.32531        5.10141

Ca 1.0



