%chk=holoCaM-CaMKII.loop4.water2.frame141.chk
%nprocshared=20
%mem=10GB
%nosave
#b3lyp/svp scf=(tight,noincore,xqc) Test 
#IOP(5/87=12) Density=Current Pop=(MK,readradii) iop(6/33=2) iop(6/42=6)

holoCaM-CaMKII.loop4.water2.frame141 

   -3  1 
C         26.56421        3.82408       72.97970
C         27.65925        3.17716       73.77150
O         28.74249        3.00384       73.23908
H         25.63448        3.92098       73.57863
H         26.88843        4.83483       72.65699
H         26.34387        3.20475       72.08493
N         27.44762        2.79320       75.05981
C         28.45923        2.13570       75.88153
C         28.86066        0.81479       75.23511
O         28.00846       -0.03462       75.01790
C         27.91437        2.02370       77.32579
C         28.72942        1.28168       78.35420
O         28.14793        0.49682       79.08212
O         30.04226        1.50867       78.56885
H         26.52107        2.98386       75.47236
H         29.33720        2.80340       75.92063
H         26.90309        1.55973       77.30545
H         27.79224        3.06482       77.69637
N         30.15840        0.61151       74.85603
C         30.62779       -0.51859       74.06627
C         31.22236       -1.55109       75.00702
O         30.72430       -2.66717       75.05400
C         31.65122       -0.03599       72.97183
C         31.07570        1.15589       72.15750
C         32.04883       -1.20296       72.05026
C         31.99573        1.70436       71.06266
H         30.85469        1.32306       75.09010
H         29.76258       -0.98245       73.54084
H         32.57509        0.33302       73.47093
H         30.91404        1.99939       72.85642
H         30.10433        0.87424       71.69812
H         32.82759       -0.88895       71.32446
H         32.48501       -2.03663       72.63738
H         31.16495       -1.57406       71.48985
H         31.52452        2.60263       70.60753
H         32.97870        2.00121       71.48568
H         32.14373        0.96348       70.25137
N         32.28648       -1.24005       75.80009
C         32.88040       -2.18358       76.74927
C         31.99016       -2.49218       77.95695
O         32.38026       -3.34356       78.74451
C         34.29129       -1.71935       77.18102
C         34.34972       -0.29780       77.65572
O         33.61292        0.10647       78.70224
O         35.06006        0.50337       77.06976
H         32.69988       -0.30183       75.69854
H         33.04188       -3.15190       76.22666
H         34.96322       -1.80889       76.29926
H         34.69041       -2.39332       77.96967
N         30.78167       -1.89480       78.16515
C         29.89973       -2.27312       79.26043
C         30.49354       -1.97389       80.61881
O         30.57916       -2.87470       81.44064
H         30.43942       -1.17602       77.51208
H         29.63762       -3.35018       79.17617
H         28.95102       -1.71582       79.16966
N         30.90007       -0.71139       80.92588
C         31.41475       -0.30102       82.22812
C         30.52173        0.76352       82.87029
O         30.90757        1.32153       83.88808
C         32.89110        0.14411       82.10374
C         33.16728        1.37400       81.27764
O         34.43987        1.79052       81.13498
O         32.27226        1.99531       80.73029
H         30.83036        0.00429       80.19652
H         31.42927       -1.16279       82.93104
H         33.46747       -0.70266       81.66948
H         33.28952        0.33159       83.12391
N         29.27320        1.02885       82.38165
C         28.32699        1.92443       83.02745
C         28.52643        3.39352       82.72533
O         27.70020        4.16915       83.18868
H         28.91155        0.47878       81.59156
H         28.30731        1.73470       84.12262
H         27.31420        1.68195       82.63717
N         29.54057        3.86629       81.94435
C         29.65126        5.27255       81.56333
C         29.65236        5.44276       80.05852
O         29.84231        4.48238       79.32149
C         30.95029        5.89058       82.11809
C         30.90035        6.12866       83.63148
C         32.16701        6.77093       84.15473
N         32.24651        7.14137       85.45257
O         33.12041        6.97124       83.41445
H         30.24645        3.21211       81.58002
H         28.78239        5.85582       81.93977
H         31.11604        6.88698       81.65018
H         31.80669        5.23328       81.85516
H         30.72538        5.17375       84.16995
H         30.05472        6.82013       83.84014
H         31.44967        6.99706       86.08935
H         33.10136        7.58733       85.81782
N         29.46726        6.69195       79.54599
C         29.61293        7.04022       78.14352
C         30.68916        8.10839       78.05825
O         30.53480        9.18774       78.61534
C         28.27043        7.51818       77.52922
C         28.45895        8.02935       76.08815
C         27.25173        6.36773       77.51276
H         29.24953        7.46072       80.20100
H         29.93553        6.14936       77.55677
H         27.86241        8.35406       78.13937
H         29.12637        8.91296       76.07291
H         28.89299        7.23959       75.43708
H         27.48705        8.35416       75.66069
H         27.62637        5.52657       76.88794
H         27.06090        5.99214       78.53885
H         26.28679        6.71550       77.08595
N         31.82723        7.84172       77.37613
C         32.92012        8.77747       77.16168
C         32.51567        9.75299       76.07361
O         31.48060        9.55767       75.45930
C         34.17631        7.94285       76.78398
C         35.42423        8.70471       76.42573
N         36.00981        9.55228       77.29974
O         35.93189        8.52805       75.32875
H         31.88836        6.92722       76.93531
H         33.12313        9.32788       78.10599
H         33.92306        7.29377       75.91850
H         34.41517        7.27718       77.64365
H         35.60734        9.71090       78.23348
H         36.86982       10.05479       77.03290
N         33.26588       10.84705       75.78524
C         32.92455       11.75103       74.69464
C         33.03956       11.02320       73.36397
O         32.11185       11.06298       72.56890
C         33.86465       12.97274       74.69142
C         33.49247       13.91220       73.56939
C         32.23878       14.54922       73.56035
C         34.38195       14.13064       72.50608
C         31.87856       15.38238       72.49903
C         34.01800       14.96206       71.44383
C         32.76284       15.58847       71.43564
O         32.39521       16.38439       70.41201
H         34.09819       11.04546       76.35792
H         31.88615       12.12330       74.84010
H         34.91395       12.62134       74.57659
H         33.79506       13.51397       75.66000
H         31.53627       14.39579       74.37021
H         35.34922       13.64372       72.48984
H         30.90750       15.86155       72.50058
H         34.70949       15.11182       70.62490
H         32.97282       16.54280       69.65198
N         34.17669       10.33341       73.07556
C         34.42187        9.62243       71.82386
C         33.31261        8.62033       71.55132
O         32.74411        8.63554       70.46876
C         35.79593        8.90523       71.86094
C         36.96982        9.88547       72.06740
C         38.29211        9.17725       72.01618
O         39.12462        9.49368       71.18142
O         38.57774        8.20788       72.90674
H         34.89472       10.30201       73.81014
H         34.45159       10.35326       70.98540
H         35.94307        8.38580       70.88800
H         35.80623        8.13757       72.66595
H         36.90683       10.38749       73.05374
H         36.93684       10.66782       71.27860
N         32.92125        7.75475       72.52386
C         31.83404        6.78820       72.37744
C         30.52740        7.46874       71.98242
O         29.89132        7.01744       71.03974
C         31.66448        5.99424       73.69020
C         32.89892        5.10168       73.96621
C         32.74078        4.36378       75.25561
O         32.53213        3.04709       75.27387
O         32.70628        4.96355       76.30964
H         33.40474        7.81933       73.43264
H         32.08288        6.05317       71.57953
H         30.77543        5.32805       73.60352
H         31.47913        6.70187       74.52855
H         33.83868        5.68697       74.01890
H         32.98532        4.36866       73.13615
N         30.08345        8.57934       72.62823
C         28.85680        9.25875       72.26730
H         27.98712        8.59314       72.44829
H         28.73659       10.17616       72.88373
H         28.88189        9.55853       71.19738
H         30.65162        8.97841       73.37828
Ca        31.38192        2.56150       77.13834
O         33.44298        5.04765       79.75291
H         33.56532        5.78997       80.39574
H         34.36550        4.75847       79.54619
O         34.95181        3.25904       77.53690
H         35.49248        2.85562       78.26216
H         35.61548        3.67980       76.93537

Ca 1.0



