%chk=holoCaM-CaMKII.loop1.water2.frame80.chk
%nprocshared=20
%mem=10GB
%nosave
#b3lyp/svp scf=(tight,noincore,xqc) Test 
#IOP(5/87=12) Density=Current Pop=(MK,readradii) iop(6/33=2) iop(6/42=6)

holoCaM-CaMKII.loop1.water2.frame80 

   0  1 
C        -13.00190       57.76323       78.57320
C        -14.39616       57.26911       78.32585
O        -14.87689       56.44454       79.08221
H        -12.36962       57.52176       77.69185
H        -13.01193       58.86318       78.72247
H        -12.56083       57.27851       79.46967
N        -15.10210       57.76189       77.27316
C        -16.44224       57.33920       76.85610
C        -16.35639       56.01264       76.10081
O        -16.53297       55.98687       74.89090
C        -17.03100       58.48736       76.00602
C        -18.36421       58.25812       75.35864
O        -18.45322       58.43277       74.15417
O        -19.48665       57.96286       76.04443
H        -14.63942       58.50578       76.72595
H        -17.12290       57.23749       77.72899
H        -16.31112       58.74646       75.19839
H        -17.13828       59.37722       76.65578
N        -16.07156       54.86048       76.76966
C        -15.93241       53.55200       76.13906
C        -17.24487       53.10523       75.51756
O        -17.27345       52.86183       74.31907
C        -15.44647       52.51293       77.18683
C        -14.02264       52.78459       77.73360
C        -12.86243       52.16980       76.91856
C        -12.70675       52.65598       75.47197
N        -11.54293       52.03489       74.83938
H        -15.94506       54.90971       77.78389
H        -15.18842       53.63651       75.33311
H        -15.48572       51.47218       76.79963
H        -16.15602       52.56829       78.04247
H        -13.95544       52.28357       78.72439
H        -13.86149       53.86898       77.91629
H        -12.98813       51.06548       76.90509
H        -11.92126       52.39890       77.46589
H        -12.58965       53.76264       75.45880
H        -13.59596       52.36158       74.88186
H        -11.45982       52.38463       73.85738
H        -10.67013       52.27658       75.36172
H        -11.66341       50.99563       74.81468
N        -18.37703       52.98226       76.26942
C        -19.67291       52.56088       75.71956
C        -20.23304       53.51490       74.64015
O        -21.22892       53.16051       74.02516
C        -20.68646       52.30826       76.87170
C        -20.92972       53.53130       77.71370
O        -21.64633       53.48164       78.69981
O        -20.34109       54.67938       77.34188
H        -18.30001       53.17171       77.28032
H        -19.51609       51.57815       75.22224
H        -20.26540       51.51625       77.52953
H        -21.64994       51.93485       76.46146
N        -19.61140       54.68574       74.29764
C        -19.93552       55.45679       73.10236
C        -21.19076       56.30265       73.14649
O        -21.47446       56.92819       72.13384
H        -18.77763       54.98294       74.81197
H        -19.98059       54.76326       72.23450
H        -19.09928       56.16141       72.90461
N        -21.98503       56.40719       74.24824
C        -23.20327       57.22563       74.25540
C        -22.96620       58.72969       74.05229
O        -23.94392       59.43665       73.85183
C        -24.04250       56.95066       75.52376
C        -23.27259       57.09273       76.80661
O        -23.13677       56.03323       77.62639
O        -22.76718       58.15432       77.11391
H        -21.73790       55.86012       75.08458
H        -23.82683       56.90132       73.39257
H        -24.40686       55.90299       75.47098
H        -24.93205       57.61706       75.54415
N        -21.72520       59.29169       74.08220
C        -21.45823       60.69710       73.80384
C        -21.00444       61.47154       75.02104
O        -20.63522       62.62628       74.85186
H        -20.91960       58.70425       74.30034
H        -22.35304       61.21937       73.40311
H        -20.66927       60.74380       73.02182
N        -21.06350       60.94723       76.27998
C        -20.70162       61.69901       77.47628
C        -19.66317       60.95859       78.29678
O        -19.41887       59.78283       78.06977
C        -21.95999       61.98355       78.33994
C        -22.98185       62.86803       77.60645
O        -22.55777       60.78683       78.77528
H        -21.42117       59.99496       76.40716
H        -20.25381       62.67587       77.19023
H        -21.65596       62.54858       79.24716
H        -23.11827       60.43289       78.03724
H        -23.85432       63.05890       78.26747
H        -22.52123       63.84109       77.33690
H        -23.34635       62.37410       76.68029
N        -19.00482       61.61713       79.28505
C        -18.02912       61.00682       80.17771
C        -18.55741       61.18769       81.58592
O        -18.85764       62.31164       81.96900
C        -16.62567       61.64902       79.96730
C        -16.14283       61.37046       78.51772
C        -15.61130       61.08212       80.98449
C        -14.84834       62.08504       78.12944
H        -19.20717       62.62131       79.41754
H        -17.91628       59.92007       79.97047
H        -16.71157       62.74721       80.12124
H        -16.91524       61.71204       77.79648
H        -15.99748       60.27714       78.38648
H        -14.61762       61.55905       80.87258
H        -15.93926       61.28370       82.02439
H        -15.49741       59.98345       80.85504
H        -14.60607       61.84685       77.07124
H        -14.97676       63.18375       78.22295
H        -13.99126       61.75460       78.74839
N        -18.68926       60.11957       82.41809
C        -19.23910       60.22048       83.76426
C        -18.11923       60.23688       84.77576
O        -16.96898       60.09017       84.40045
C        -20.21595       59.04306       84.04641
C        -21.40945       59.02108       83.08386
O        -19.53931       57.80750       84.03050
H        -18.32604       59.21011       82.10623
H        -19.78621       61.18159       83.88234
H        -20.64145       59.16271       85.06494
H        -19.44726       57.50548       83.09008
H        -21.98937       59.96290       83.16627
H        -21.05925       58.89953       82.03900
H        -22.07486       58.16660       83.33510
N        -18.38488       60.43377       86.09293
C        -17.35628       60.36758       87.12625
C        -16.75523       58.97389       87.17374
O        -15.54105       58.85418       87.25443
C        -17.92409       60.76398       88.51098
C        -18.28963       62.25202       88.54930
O        -19.05872       60.00038       88.83553
H        -19.36247       60.61240       86.36949
H        -16.53961       61.09191       86.90294
H        -17.13101       60.62845       89.28502
H        -18.74059       59.18408       89.30062
H        -18.66076       62.52528       89.55929
H        -17.39014       62.86964       88.33388
H        -19.07423       62.49687       87.80364
N        -17.55489       57.87321       87.08477
C        -17.05724       56.50194       87.13191
C        -15.99852       56.26698       86.06668
O        -14.90492       55.83453       86.40271
C        -18.23972       55.51902       86.97624
C        -17.84470       54.07082       87.29689
C        -19.07387       53.14872       87.23932
C        -18.77295       51.70185       87.66786
N        -18.40179       51.60590       89.08297
H        -18.56981       58.02145       86.97089
H        -16.60809       56.33525       88.13648
H        -18.67923       55.59324       85.95626
H        -19.02286       55.81108       87.71070
H        -17.42180       54.06608       88.32156
H        -17.07086       53.70800       86.58566
H        -19.45512       53.13785       86.19461
H        -19.87926       53.54572       87.89572
H        -17.96857       51.27098       87.03243
H        -19.69589       51.10129       87.50750
H        -18.29707       50.59814       89.34002
H        -17.49035       52.08028       89.26703
H        -19.14965       52.02638       89.68195
N        -16.24750       56.57754       84.76420
C        -15.26561       56.42472       83.69208
C        -14.00078       57.20836       84.01279
O        -12.93552       56.60936       84.06924
C        -15.87803       56.85299       82.33557
C        -16.99681       55.87529       81.91437
C        -17.63335       56.23296       80.60238
O        -18.28105       57.40087       80.45274
O        -17.61126       55.43889       79.67680
H        -17.17132       56.97164       84.53829
H        -14.97940       55.35257       83.60255
H        -15.08472       56.83111       81.56046
H        -16.26478       57.89403       82.40314
H        -17.79820       55.84535       82.67767
H        -16.56162       54.85498       81.83493
N        -14.04534       58.53862       84.28321
C        -12.87518       59.29585       84.67060
H        -12.12341       59.28499       83.85473
H        -13.16022       60.34859       84.88495
H        -12.43298       58.86119       85.59324
H        -14.94291       59.02468       84.24665
Ca       -19.97196       56.80462       77.90994
O        -22.75483       57.88815       80.11927
H        -23.51271       58.46673       80.38545
H        -22.01586       58.51680       79.92230
O        -21.40655       55.44074       81.32132
H        -21.73901       54.53271       81.53469
H        -21.18683       55.40624       80.35680

Ca 1.0



