%chk=holoCaM-CaMKII.loop4.water2.frame78.chk
%nprocshared=20
%mem=10GB
%nosave
#b3lyp/svp scf=(tight,noincore,xqc) Test 
#IOP(5/87=12) Density=Current Pop=(MK,readradii) iop(6/33=2) iop(6/42=6)

holoCaM-CaMKII.loop4.water2.frame78 

   -3  1 
C         -0.07354       52.28509      -10.28715
C          1.28456       51.72482       -9.99761
O          2.27642       52.39986      -10.22006
H         -0.66607       52.32000       -9.34808
H          0.00033       53.31056      -10.70528
H         -0.59128       51.63034      -11.01905
N          1.39176       50.48135       -9.46438
C          2.65883       49.85194       -9.12076
C          3.48243       49.52364      -10.37099
O          2.94035       48.93100      -11.29253
C          2.37287       48.60015       -8.27055
C          3.65679       48.01875       -7.80767
O          4.57372       48.83269       -7.26513
O          3.91412       46.84984       -8.01820
H          0.51603       49.97666       -9.25249
H          3.22740       50.55118       -8.46439
H          1.78264       47.84379       -8.83339
H          1.79409       48.91021       -7.37320
N          4.80482       49.87861      -10.45593
C          5.62424       49.73796      -11.66943
C          6.77843       48.72643      -11.53517
O          7.31234       48.35251      -12.57049
C          6.14415       51.15920      -12.08809
C          4.99414       52.18876      -12.22834
C          7.02143       51.17024      -13.35279
C          3.98201       51.87846      -13.33418
H          5.22715       50.32104       -9.63388
H          4.98888       49.32939      -12.48210
H          6.78927       51.53722      -11.26816
H          5.42414       53.19620      -12.41844
H          4.45949       52.25584      -11.26451
H          7.95750       50.59884      -13.19498
H          6.48046       50.74844      -14.22339
H          7.33295       52.21145      -13.58668
H          3.49069       50.89929      -13.16963
H          3.19260       52.65853      -13.33561
H          4.47094       51.88273      -14.32928
N          7.21379       48.22435      -10.33908
C          8.27725       47.21221      -10.22558
C          7.79226       45.90237       -9.59652
O          8.58977       44.98714       -9.44610
C          9.56816       47.78668       -9.58014
C          9.72716       47.94663       -8.08091
O         10.80618       48.33818       -7.66802
O          8.80502       47.59227       -7.16907
H          6.77601       48.57792       -9.49242
H          8.61021       46.93165      -11.24995
H          9.79384       48.75543      -10.07702
H         10.38983       47.08703       -9.85563
N          6.47599       45.71265       -9.29358
C          5.90386       44.45713       -8.83038
C          6.26216       44.09037       -7.40752
O          6.73376       42.98432       -7.18612
H          5.80855       46.46665       -9.49350
H          6.16615       43.64035       -9.53846
H          4.79766       44.55541       -8.84890
N          6.00604       44.95475       -6.38311
C          6.17640       44.62803       -4.96826
C          4.89431       44.88409       -4.15665
O          4.93648       44.74357       -2.94230
C          7.40325       45.37583       -4.40356
C          7.31713       46.87362       -4.34978
O          6.30129       47.46700       -4.66177
O          8.38846       47.57268       -3.93479
H          5.67187       45.89662       -6.61702
H          6.42412       43.54943       -4.85113
H          8.27823       45.10341       -5.03339
H          7.60463       45.01646       -3.37162
N          3.70803       45.20876       -4.75819
C          2.44614       45.36918       -4.04385
C          2.20734       46.74525       -3.43680
O          1.10927       46.95075       -2.93961
H          3.65121       45.22230       -5.78556
H          2.32070       44.56133       -3.28906
H          1.62851       45.23660       -4.78612
N          3.14634       47.73665       -3.44092
C          2.90142       49.09401       -2.93470
C          3.26034       50.13801       -3.98796
O          3.77237       49.76785       -5.02889
C          3.73211       49.32631       -1.66091
C          3.26357       48.42032       -0.51315
C          4.04449       48.68538        0.74621
N          5.37293       48.43413        0.80410
O          3.46809       49.12289        1.73091
H          4.07945       47.52635       -3.80828
H          1.82620       49.23369       -2.68752
H          3.61333       50.38012       -1.32827
H          4.80483       49.14548       -1.88462
H          3.37160       47.34837       -0.78398
H          2.18651       48.62691       -0.32418
H          5.87400       48.04965       -0.00984
H          5.90040       48.61362        1.67130
N          3.00958       51.47050       -3.78963
C          3.35442       52.50653       -4.76917
C          4.27210       53.53782       -4.11668
O          3.85201       54.20532       -3.18153
C          2.07150       53.19126       -5.32579
C          2.41389       54.23491       -6.40506
C          1.10289       52.16404       -5.93249
H          2.54005       51.76290       -2.91950
H          3.88174       52.05015       -5.63592
H          1.54664       53.70603       -4.49086
H          2.89603       53.74580       -7.27746
H          1.49209       54.74300       -6.75908
H          3.09203       55.01673       -6.00895
H          0.19305       52.67659       -6.31357
H          1.58262       51.62189       -6.77432
H          0.77899       51.42738       -5.16880
N          5.54898       53.71166       -4.56283
C          6.48702       54.68476       -4.00103
C          6.19114       56.09029       -4.53388
O          5.32928       56.23569       -5.38799
C          7.92588       54.21429       -4.34333
C          9.03694       55.04285       -3.75111
N          9.15388       55.19716       -2.41111
O          9.84991       55.57377       -4.49285
H          5.88398       53.09265       -5.30959
H          6.38247       54.67415       -2.89439
H          8.04189       54.18159       -5.44889
H          8.05142       53.17949       -3.95544
H          8.48272       54.75671       -1.76590
H          9.91676       55.76770       -2.01705
N          6.86829       57.18028       -4.06335
C          6.65084       58.54328       -4.54536
C          6.98227       58.67509       -6.02106
O          6.23901       59.33136       -6.73633
C          7.50694       59.55250       -3.75172
C          7.16547       60.96801       -4.16068
C          5.87373       61.47403       -3.92899
C          8.11701       61.78342       -4.79447
C          5.53644       62.76675       -4.33278
C          7.77589       63.07837       -5.19993
C          6.48234       63.57255       -4.97210
O          6.13636       64.81504       -5.36403
H          7.55444       57.04674       -3.31019
H          5.58127       58.79908       -4.38315
H          8.58327       59.33179       -3.93144
H          7.31507       59.44583       -2.66235
H          5.12344       60.86592       -3.43948
H          9.11641       61.41414       -4.98801
H          4.53574       63.13903       -4.15230
H          8.51513       63.69422       -5.69589
H          6.75663       65.40333       -5.81709
N          8.08479       58.06942       -6.54319
C          8.39634       58.07129       -7.96981
C          7.24049       57.46065       -8.73695
O          6.75298       58.06723       -9.68085
C          9.67136       57.24176       -8.25967
C         10.93673       57.85660       -7.63600
C         12.17873       57.04565       -7.90496
O         12.13515       56.00620       -8.54574
O         13.36035       57.47274       -7.42138
H          8.68657       57.53080       -5.90407
H          8.57020       59.11083       -8.32864
H          9.82411       57.19310       -9.36204
H          9.53650       56.20330       -7.88227
H         10.82164       57.93763       -6.53628
H         11.08561       58.87564       -8.05316
N          6.75428       56.24364       -8.36542
C          5.69792       55.54221       -9.08961
C          4.35090       56.26606       -9.00642
O          3.43628       55.88584       -9.72395
C          5.56547       54.08016       -8.58644
C          6.92052       53.33448       -8.61263
C          6.82609       51.89348       -8.21307
O          7.37799       51.04389       -8.89035
O          6.21979       51.52951       -7.07011
H          7.18666       55.80053       -7.54508
H          6.00742       55.49850      -10.15794
H          4.82951       53.54822       -9.22715
H          5.18861       54.08346       -7.54163
H          7.61858       53.79028       -7.88874
H          7.37754       53.40752       -9.62302
N          4.15185       57.31255       -8.15539
C          2.91687       58.06138       -8.08153
H          2.07480       57.39357       -7.80833
H          3.00711       58.85407       -7.30490
H          2.71426       58.55480       -9.05542
H          4.89846       57.59537       -7.52021
Ca         6.69600       48.23743       -7.20892
O          6.91768       50.30851       -3.16268
H          6.66643       50.65071       -2.26869
H          7.81131       49.90670       -3.02513
O          8.81635       51.03408       -5.57670
H          9.22257       50.24174       -6.00841
H          9.00724       51.78093       -6.19807

Ca 1.0



