%chk=holoCaM.loop4.water3.frame277.chk
%nprocshared=20
%mem=10GB
%nosave
#b3lyp/svp scf=(tight,noincore,xqc) Test 
#IOP(5/87=12) Density=Current Pop=(MK,readradii) iop(6/33=2) iop(6/42=6)

holoCaM.loop4.water3.frame277 

   -3  1 
C         43.82757      -11.69130       72.93290
C         44.51867      -12.74116       72.11541
O         45.71485      -12.61088       71.90468
H         42.75642      -11.93282       73.08804
H         44.32226      -11.62332       73.92593
H         43.90895      -10.70742       72.42481
N         43.83378      -13.80972       71.60811
C         44.49973      -14.86970       70.85816
C         43.51049      -15.81686       70.19395
O         42.64318      -16.35660       70.86499
C         45.43458      -15.68265       71.77434
C         46.12615      -16.74634       70.97512
O         45.99210      -18.04477       71.30455
O         46.76525      -16.43390       69.98541
H         42.81423      -13.86025       71.75425
H         45.11244      -14.39788       70.06048
H         44.85714      -16.14867       72.60248
H         46.20799      -15.02617       72.22028
N         43.65317      -16.10553       68.86510
C         42.78472      -17.02025       68.12603
C         43.53932      -18.22900       67.55767
O         42.87051      -19.08247       66.98724
C         42.04547      -16.24363       66.98455
C         43.03398      -15.71351       65.90759
C         41.20594      -15.10581       67.59454
C         42.39265      -14.95552       64.74562
H         44.42103      -15.65309       68.35500
H         42.01291      -17.43331       68.81121
H         41.34369      -16.94753       66.48522
H         43.60313      -16.56558       65.47766
H         43.74286      -15.02220       66.37246
H         41.85579      -14.34695       68.08021
H         40.59078      -14.60260       66.82239
H         40.50764      -15.51409       68.35457
H         41.90092      -14.02525       65.09656
H         43.18719      -14.65121       64.02958
H         41.65962      -15.59729       64.21682
N         44.90236      -18.36281       67.61469
C         45.62615      -19.44860       66.94805
C         46.56483      -20.23808       67.86754
O         46.51960      -21.45844       67.80177
C         46.30372      -18.95026       65.64973
C         47.31879      -17.84216       65.74020
O         47.62789      -17.24139       66.90078
O         47.85613      -17.45736       64.71493
H         45.45908      -17.62536       68.06267
H         44.90426      -20.20081       66.55502
H         45.49733      -18.58580       64.97377
H         46.78219      -19.82354       65.15373
N         47.43929      -19.64072       68.73354
C         48.35081      -20.38518       69.60251
C         49.82050      -20.06869       69.35717
O         50.65176      -20.63762       70.05143
H         47.44524      -18.62012       68.81821
H         48.22868      -21.48217       69.47026
H         48.10340      -20.14750       70.65883
N         50.22694      -19.21910       68.36988
C         51.62915      -18.98904       68.01222
C         52.45454      -18.16016       69.01053
O         53.59307      -17.85515       68.68007
C         51.71672      -18.39004       66.58754
C         51.13354      -17.01648       66.41745
O         50.55212      -16.36571       67.44161
O         51.18628      -16.48552       65.32104
H         49.50840      -18.80351       67.76338
H         52.12640      -19.97959       67.91504
H         51.19185      -19.07629       65.88630
H         52.78382      -18.35248       66.27927
N         52.01089      -17.80777       70.25294
C         52.85436      -17.09534       71.20563
C         53.06614      -15.62280       70.89890
O         53.95489      -15.04212       71.50574
H         51.10266      -18.14334       70.58607
H         53.83621      -17.61442       71.26229
H         52.40638      -17.14602       72.22147
N         52.24351      -14.92189       70.06501
C         52.39379      -13.48521       69.82668
C         51.11177      -12.90274       69.18017
O         50.86496      -13.55594       67.97273
C         53.68351      -13.17881       69.00866
C         53.76651      -13.90798       67.64827
C         55.03374      -13.62035       66.88403
N         55.23582      -14.21329       65.68449
O         55.87542      -12.85318       67.32864
H         51.44576      -15.41007       69.63947
H         52.47189      -12.97388       70.81209
H         54.56392      -13.48430       69.61086
H         53.76175      -12.08159       68.84602
H         52.94034      -13.59926       66.98268
H         53.70497      -15.00378       67.82095
H         54.53524      -14.86241       65.29562
H         56.09184      -14.02517       65.14251
N         51.19654      -11.43818       69.00414
C         49.90718      -10.75920       68.70799
C         49.93892      -10.28596       67.26610
O         50.88800       -9.62349       66.86967
C         49.60489       -9.58209       69.69505
C         48.39599       -8.73507       69.24037
C         49.29016      -10.13074       71.10199
H         51.64652      -11.01416       69.84726
H         49.04438      -11.43491       68.84440
H         50.48514       -8.90516       69.74539
H         48.59754       -8.24839       68.26383
H         47.48051       -9.35837       69.14787
H         48.19741       -7.92074       69.97019
H         49.09388       -9.29669       71.80894
H         48.37999      -10.77096       71.07154
H         50.12461      -10.73555       71.50775
N         48.88105      -10.54395       66.44573
C         48.78708      -10.11890       65.05281
C         47.77889       -8.98517       64.93771
O         47.17120       -8.62153       65.93649
C         48.40089      -11.37089       64.22228
C         48.20392      -11.17509       62.74021
N         49.20169      -10.71034       61.95565
O         47.13031      -11.46864       62.23546
H         48.06245      -11.02971       66.84406
H         49.76185       -9.71627       64.70181
H         47.46103      -11.79731       64.64345
H         49.20537      -12.12027       64.35137
H         50.11789      -10.46673       62.35617
H         49.05079      -10.58904       60.94282
N         47.59688       -8.32427       63.75966
C         46.62374       -7.25069       63.59366
C         45.19877       -7.78113       63.70640
O         44.32381       -7.03112       64.11122
C         46.83148       -6.54874       62.23580
C         45.89218       -5.38367       62.02963
C         45.91575       -4.27814       62.89886
C         44.98287       -5.39417       60.95966
C         45.03844       -3.20729       62.70302
C         44.10826       -4.32214       60.76510
C         44.13212       -3.22498       61.63784
O         43.29183       -2.18551       61.46232
H         48.19273       -8.57192       62.95745
H         46.80316       -6.50119       64.39683
H         46.70150       -7.30028       61.42570
H         47.87497       -6.16805       62.17820
H         46.61067       -4.24300       63.72833
H         44.94812       -6.23319       60.27606
H         45.06338       -2.36276       63.38042
H         43.41251       -4.34673       59.93618
H         42.64994       -2.16040       60.73831
N         44.88726       -9.05670       63.32819
C         43.54083       -9.61852       63.45292
C         43.14740       -9.82425       64.92273
O         41.99174      -10.12124       65.19615
C         43.48180      -10.95913       62.67421
C         42.07087      -11.54118       62.48176
C         41.19222      -10.61067       61.69207
O         40.05451      -10.13424       62.23146
O         41.50561      -10.28281       60.55814
H         45.62781       -9.63707       62.91683
H         42.84605       -8.89764       62.97061
H         44.12484      -11.70841       63.18778
H         43.90715      -10.79729       61.65863
H         41.60477      -11.77107       63.45996
H         42.15302      -12.49919       61.92490
N         44.06678       -9.70069       65.92009
C         43.81656       -9.90176       67.34047
C         44.07479       -8.61512       68.12533
O         43.96441       -8.64465       69.34158
C         44.76889      -11.00305       67.84664
C         44.60826      -12.33191       67.08170
C         45.71906      -13.28302       67.41143
O         45.92587      -14.25962       66.71085
O         46.60917      -12.96393       68.35325
H         45.03411       -9.48443       65.66992
H         42.76680      -10.21627       67.52588
H         44.62743      -11.18385       68.93543
H         45.80771      -10.63050       67.69208
H         44.70527      -12.12755       65.99502
H         43.61683      -12.78989       67.27338
N         44.41654       -7.44766       67.49852
C         44.68720       -6.20377       68.18680
H         45.70939       -5.85817       67.92183
H         43.95762       -5.43685       67.85042
H         44.62085       -6.30301       69.28874
H         44.48869       -7.40978       66.47921
Ca        48.65945      -13.52216       67.79030
O         49.34521      -16.47992       70.53933
H         49.18104      -16.69235       71.49178
H         49.07572      -17.29790       70.05180
O         48.53532      -13.86346       70.95684
H         47.91147      -13.18462       70.60122
H         48.41527      -13.82489       71.93829
O         49.02606      -14.56615       65.17587
H         48.67454      -14.97447       64.34701
H         49.94143      -14.27073       64.94046

Ca 1.0



