%chk=holoCaM-CaMKII.loop1.water2.frame86.chk
%nprocshared=20
%mem=10GB
%nosave
#b3lyp/svp scf=(tight,noincore,xqc) Test 
#IOP(5/87=12) Density=Current Pop=(MK,readradii) iop(6/33=2) iop(6/42=6)

holoCaM-CaMKII.loop1.water2.frame86 

   0  1 
C         -5.47918       40.33752       70.90838
C         -6.45746       39.43761       71.58754
O         -6.25768       38.23016       71.58643
H         -4.63588       39.74615       70.49207
H         -5.98641       40.88250       70.08702
H         -5.07671       41.06228       71.64720
N         -7.53458       39.96259       72.23389
C         -8.45219       39.11321       72.96823
C         -9.26920       38.28638       71.99310
O         -9.91194       38.88466       71.13986
C         -9.37890       39.93948       73.88220
C         -9.95865       39.06421       74.95538
O        -10.73953       39.52903       75.76529
O         -9.48417       37.81127       75.11317
H         -7.65559       40.98724       72.25809
H         -7.81912       38.48397       73.62305
H        -10.17129       40.44525       73.28761
H         -8.79222       40.71896       74.41560
N         -9.28769       36.92050       72.03871
C         -9.91347       36.11872       70.99083
C        -11.20192       35.43563       71.44268
O        -11.88393       34.89712       70.58195
C         -8.86581       35.11490       70.45330
C         -9.04013       34.75709       68.96852
C         -7.93661       33.77387       68.53189
C         -7.81184       33.60487       67.00743
N         -7.33178       34.83011       66.35839
H         -8.79083       36.43583       72.79603
H        -10.19822       36.80088       70.16056
H         -8.83035       34.21674       71.10974
H         -7.86547       35.60175       70.50685
H         -8.94376       35.71070       68.40995
H        -10.03754       34.32001       68.75096
H         -8.15429       32.78680       68.99615
H         -6.94499       34.11188       68.90454
H         -8.77838       33.28469       66.56112
H         -7.06467       32.80117       66.82109
H         -8.05376       35.58304       66.39453
H         -6.45126       35.16258       66.81668
H         -7.12263       34.62832       65.35435
N        -11.61679       35.42490       72.75149
C        -12.90302       34.85841       73.17708
C        -13.78776       35.88299       73.90503
O        -14.90323       35.53246       74.26418
C        -12.68866       33.57113       74.00791
C        -12.10421       33.76747       75.37439
O        -11.88507       34.88247       75.80340
O        -11.86544       32.69860       76.15693
H        -11.00221       35.82215       73.47608
H        -13.47556       34.53184       72.28216
H        -12.03056       32.88654       73.42999
H        -13.66815       33.06558       74.14797
N        -13.38436       37.17224       74.11605
C        -14.24405       38.20840       74.66930
C        -14.53892       38.10028       76.15434
O        -15.70439       38.06800       76.52146
H        -12.46289       37.48219       73.77850
H        -15.18746       38.24888       74.08171
H        -13.73636       39.18860       74.53502
N        -13.52727       38.16143       77.06722
C        -13.72557       38.34730       78.50961
C        -13.07617       39.66013       78.98069
O        -13.05838       39.89879       80.18121
C        -13.19592       37.12708       79.30425
C        -11.74822       36.88755       79.05108
O        -11.35971       35.78721       78.39962
O        -10.93160       37.75251       79.29765
H        -12.55963       38.15006       76.71642
H        -14.80699       38.41794       78.75787
H        -13.76774       36.22759       78.99102
H        -13.35683       37.27331       80.39448
N        -12.56771       40.58241       78.10286
C        -12.02681       41.86714       78.52176
C        -10.56029       41.85319       78.93239
O        -10.09328       42.90325       79.34299
H        -12.68932       40.44249       77.09089
H        -12.66238       42.28784       79.33278
H        -12.09530       42.57878       77.66999
N         -9.76486       40.74075       78.84394
C         -8.33900       40.74975       79.21593
C         -7.48973       39.92486       78.23787
O         -8.03803       39.31128       77.33893
C         -8.15121       40.26302       80.67661
C         -8.85050       41.16671       81.70542
O         -8.56616       38.93213       80.83153
H        -10.17530       39.86891       78.49642
H         -7.94971       41.78909       79.15487
H         -7.07016       40.30604       80.92480
H         -9.55386       38.92702       80.90833
H         -8.47912       42.20919       81.62044
H         -9.95193       41.16081       81.56220
H         -8.63585       40.79516       82.72959
N         -6.11912       39.89636       78.35355
C         -5.24374       39.16177       77.43235
C         -4.38475       38.15886       78.21031
O         -3.56117       38.57754       79.00990
C         -4.34582       40.16299       76.63545
C         -5.22049       41.18520       75.85889
C         -3.40464       39.40979       75.66953
C         -4.41404       42.30557       75.19444
H         -5.67259       40.44738       79.09881
H         -5.85304       38.60930       76.69490
H         -3.72302       40.72430       77.36766
H         -5.91573       41.68591       76.56501
H         -5.82858       40.66016       75.08941
H         -2.75566       38.70163       76.21981
H         -3.98988       38.84474       74.91317
H         -2.71684       40.10363       75.14756
H         -5.10941       43.01981       74.70529
H         -3.82469       42.85705       75.95829
H         -3.73167       41.91931       74.41194
N         -4.52769       36.81088       78.01499
C         -3.69831       35.80582       78.69562
C         -2.30144       35.71706       78.08385
O         -2.01761       36.38332       77.10261
C         -4.34297       34.38187       78.63154
C         -5.67405       34.27801       79.37126
O         -4.46579       33.91989       77.31163
H         -5.27760       36.49647       77.38640
H         -3.61216       36.07543       79.77108
H         -3.68876       33.66166       79.16212
H         -5.27765       34.32158       76.90932
H         -5.55228       34.59656       80.42819
H         -6.43267       34.89813       78.86981
H         -6.02499       33.22412       79.35445
N         -1.39856       34.83285       78.59853
C         -0.12282       34.48434       77.97307
C         -0.35840       33.89645       76.58465
O          0.30342       34.29278       75.63651
C          0.63322       33.42376       78.83135
C          1.05721       33.96454       80.19878
O         -0.16720       32.28142       79.02745
H         -1.66428       34.32588       79.45384
H          0.53213       35.38026       77.88884
H          1.57139       33.15369       78.28685
H          0.37260       31.48397       78.78650
H          1.60901       33.17503       80.75332
H          1.72648       34.84079       80.07422
H          0.17930       34.26177       80.80842
N         -1.28621       32.91415       76.42132
C         -1.53132       32.17855       75.18122
C         -1.95699       33.11301       74.06233
O         -1.33019       33.11443       73.01236
C         -2.58527       31.06908       75.43538
C         -2.05753       30.06099       76.48161
C         -3.03261       28.91845       76.77741
C         -2.51521       28.00014       77.90560
N         -1.23519       27.36580       77.57878
H         -1.84943       32.67427       77.24805
H         -0.59439       31.66674       74.86626
H         -2.78269       30.52572       74.48554
H         -3.54096       31.51844       75.78727
H         -1.85737       30.56648       77.44636
H         -1.10372       29.64380       76.09920
H         -3.20959       28.32586       75.85467
H         -4.00294       29.34730       77.11224
H         -3.27494       27.20932       78.08884
H         -2.40372       28.58589       78.84626
H         -0.47083       28.07615       77.52405
H         -0.98453       26.69410       78.33960
H         -1.30827       26.84525       76.67520
N         -2.98660       33.97794       74.25074
C         -3.41936       34.98345       73.28166
C         -2.25274       35.85905       72.85919
O         -2.04794       36.02092       71.66409
C         -4.56019       35.82686       73.89293
C         -5.84523       34.98105       74.00298
C         -6.96641       35.68589       74.70132
O         -6.79794       36.91030       75.22725
O         -8.04690       35.13069       74.80808
H         -3.44736       33.95370       75.16648
H         -3.81474       34.49409       72.36300
H         -4.78527       36.70023       73.24318
H         -4.24087       36.21090       74.88879
H         -5.65463       34.04073       74.55790
H         -6.17917       34.71792       72.97531
N         -1.40909       36.39907       73.77950
C         -0.23923       37.18111       73.43216
H          0.67256       36.64539       73.77317
H         -0.15047       37.35070       72.33836
H         -0.28830       38.16599       73.93949
H         -1.57165       36.20747       74.77337
Ca       -10.00441       36.42913       76.76601
O         -7.65509       36.89834       79.30979
H         -7.87532       36.33735       80.09552
H         -8.51617       37.00696       78.83967
O         -8.38997       33.58335       77.11484
H         -8.48250       33.58998       78.09954
H         -9.32023       33.62133       76.77869

Ca 1.0



