%chk=holoCaM-CaMKII.loop3.water2.frame124.chk
%nprocshared=20
%mem=10GB
%nosave
#b3lyp/svp scf=(tight,noincore,xqc) Test 
#IOP(5/87=12) Density=Current Pop=(MK,readradii) iop(6/33=2) iop(6/42=6)

holoCaM-CaMKII.loop3.water2.frame124 

   0  1 
C         29.66908       42.40138       85.39224
C         29.88940       41.41815       86.50444
O         29.06667       40.53385       86.67856
H         28.71665       42.94448       85.55966
H         30.49153       43.14662       85.33990
H         29.62201       41.86256       84.42325
N         31.00587       41.50328       87.27829
C         31.33508       40.59493       88.37247
C         30.55197       40.96919       89.62494
O         31.11616       41.56571       90.53181
C         32.87450       40.61292       88.55173
C         33.46771       39.72757       89.61980
O         34.27071       40.21994       90.39353
O         33.23631       38.39754       89.68799
H         31.69382       42.23418       87.03720
H         31.08733       39.56223       88.07728
H         33.21460       41.65653       88.73622
H         33.31926       40.28593       87.58953
N         29.23050       40.63740       89.74020
C         28.41882       40.95726       90.91114
C         28.97797       40.24817       92.13411
O         29.32544       40.91317       93.10028
C         26.93634       40.53407       90.72267
C         26.19790       41.14783       89.51578
C         26.09244       42.68012       89.56057
C         25.17225       43.24287       88.45837
N         25.66545       42.96566       87.10757
H         28.78923       40.11622       88.97431
H         28.43839       42.05729       91.07631
H         26.37349       40.80271       91.64464
H         26.87688       39.43138       90.60433
H         25.16706       40.72967       89.52412
H         26.68489       40.82639       88.57403
H         27.10065       43.13765       89.47242
H         25.65443       42.97766       90.53818
H         25.10043       44.34479       88.59394
H         24.14849       42.82138       88.57354
H         25.66664       41.93946       86.91334
H         25.02725       43.42127       86.41552
H         26.62745       43.35642       86.98774
N         29.09476       38.88517       92.15189
C         29.60457       38.13412       93.30147
C         31.06041       38.45096       93.65423
O         31.50956       37.99567       94.69732
C         29.41074       36.60923       93.12087
C         30.19109       36.01891       91.97926
O         31.13601       35.09091       92.21701
O         29.94162       36.33796       90.83072
H         28.76401       38.36957       91.32544
H         28.98194       38.42639       94.17661
H         28.33284       36.38652       92.96449
H         29.72262       36.10222       94.05965
N         31.84223       39.25513       92.87789
C         33.15176       39.72852       93.29207
C         34.26512       38.69861       93.28247
O         35.36121       39.07566       93.67394
H         31.46805       39.63845       92.00502
H         33.06041       40.16679       94.31024
H         33.45730       40.56086       92.62919
N         34.09917       37.39928       92.88777
C         35.18272       36.42512       93.03579
C         36.40253       36.67223       92.14833
O         37.42717       36.06693       92.43205
C         34.69404       34.96880       92.87724
C         34.20048       34.58591       91.50255
N         33.83623       33.30638       91.26296
O         34.12989       35.41030       90.60457
H         33.17227       37.07762       92.57479
H         35.52785       36.51120       94.09140
H         33.88058       34.77738       93.60981
H         35.54206       34.29537       93.13041
H         33.89689       32.59524       92.00630
H         33.50638       33.02108       90.33122
N         36.38386       37.50131       91.06184
C         37.57445       37.76827       90.25937
C         37.49983       37.27217       88.82894
O         38.48726       37.44679       88.12774
H         35.50883       37.96915       90.79709
H         38.47072       37.29021       90.70648
H         37.75603       38.86433       90.25068
N         36.39551       36.66686       88.30389
C         36.35044       36.20235       86.91441
C         34.93417       36.00648       86.42395
O         34.02211       35.86211       87.22845
C         37.22998       34.94872       86.70407
C         36.88203       33.81762       87.64930
C         37.63909       33.63720       88.81998
C         35.82223       32.93400       87.37997
C         37.33913       32.60375       89.70963
C         35.53137       31.88872       88.26791
C         36.28527       31.72287       89.43569
O         35.99056       30.71739       90.28501
H         35.55595       36.58463       88.88996
H         36.74035       37.03201       86.28267
H         38.28118       35.24772       86.89408
H         37.20956       34.59414       85.64973
H         38.45777       34.30654       89.05144
H         35.23138       33.04376       86.47946
H         37.92887       32.48890       90.61037
H         34.71961       31.20539       88.05017
H         36.48781       30.57341       91.10347
N         34.66853       36.14674       85.09051
C         33.31053       36.19065       84.56633
C         33.07325       35.16400       83.47697
O         34.01183       34.57007       82.96433
C         32.93221       37.64344       84.12378
C         33.86896       38.18548       83.00858
C         32.92489       38.56625       85.35778
C         33.51205       39.59514       82.52468
H         35.45273       36.31773       84.44303
H         32.62078       35.90550       85.37090
H         31.89403       37.63117       83.72858
H         33.81199       37.50401       82.13319
H         34.92056       38.21533       83.36249
H         33.94331       38.65880       85.79057
H         32.54832       39.57857       85.10839
H         32.24108       38.16070       86.13273
H         33.64322       40.34495       83.33220
H         34.19670       39.88589       81.69977
H         32.46720       39.63023       82.15202
N         31.78968       34.88646       83.11543
C         31.39224       33.93190       82.09069
C         30.56698       34.64269       81.03049
O         30.35758       35.84110       81.14013
C         30.57869       32.79881       82.74911
O         29.41687       33.30934       83.34751
H         31.03271       35.37302       83.61451
H         32.28254       33.47934       81.60314
H         31.20451       32.30251       83.52327
H         30.30567       32.04037       81.98176
H         28.84694       32.52676       83.56741
N         30.04749       33.95744       79.97567
C         29.17175       34.56902       78.97950
C         27.90177       35.10139       79.62373
O         27.50507       36.21574       79.31489
C         28.80708       33.55041       77.89754
H         30.26528       32.95287       79.88969
H         29.70664       35.40115       78.46789
H         28.16800       34.03140       77.12561
H         29.73242       33.18623       77.40159
H         28.26366       32.68485       78.33140
N         27.23346       34.36367       80.55772
C         26.02318       34.82023       81.23875
C         26.23975       36.15749       81.92051
O         25.49855       37.09127       81.64706
C         25.58087       33.78370       82.28166
H         27.62136       33.44202       80.81318
H         25.20388       34.92571       80.49367
H         24.65186       34.12110       82.78936
H         25.37892       32.80914       81.78993
H         26.36862       33.63210       83.05147
N         27.25515       36.32246       82.80991
C         27.52798       37.58329       83.49495
C         27.77921       38.71943       82.51435
O         27.36011       39.83309       82.79760
C         28.71777       37.41771       84.45384
C         28.35036       36.49708       85.63450
C         29.51894       36.33936       86.54713
O         30.48792       35.69576       86.19519
O         29.53244       36.97109       87.72981
H         27.87077       35.51491       82.99055
H         26.64473       37.87019       84.10858
H         28.99716       38.40855       84.87664
H         29.58921       37.03515       83.88767
H         28.00786       35.49128       85.31133
H         27.52420       36.98577       86.19425
N         28.39677       38.50284       81.32050
C         28.58433       39.52673       80.31245
H         28.19800       40.51634       80.63398
H         29.66421       39.62428       80.07832
H         28.04362       39.22841       79.38854
H         28.72216       37.55942       81.09110
Ca        31.48763       37.30336       88.79222
O         29.86920       33.54700       89.72249
H         29.59012       33.31872       88.80051
H         29.02218       33.60593       90.23139
O         32.27561       33.18404       88.00503
H         32.13634       32.29073       88.40971
H         32.84895       33.01214       87.21776

Ca 1.0



