%chk=holoCaM-CaMKII.loop3.water2.frame490.chk
%nprocshared=20
%mem=10GB
%nosave
#b3lyp/svp scf=(tight,noincore,xqc) Test 
#IOP(5/87=12) Density=Current Pop=(MK,readradii) iop(6/33=2) iop(6/42=6)

holoCaM-CaMKII.loop3.water2.frame490 

   0  1 
C         91.70140       95.97294       81.88275
C         91.78563       96.73321       80.59519
O         92.84199       97.27096       80.29495
H         90.91303       96.40918       82.52898
H         91.45730       94.91170       81.66517
H         92.67270       96.00726       82.42250
N         90.69954       96.80939       79.77305
C         90.73161       97.46015       78.47047
C         89.75831       98.63659       78.47820
O         88.56245       98.43433       78.63496
C         90.40824       96.40023       77.39886
C         90.75311       96.82736       76.00335
O         90.19784       97.91485       75.45624
O         91.54002       96.16755       75.34727
H         89.82030       96.35937       80.07206
H         91.76098       97.83233       78.27109
H         89.33801       96.10984       77.46256
H         91.01576       95.49290       77.61459
N         90.23513       99.90943       78.39551
C         89.42614      101.11847       78.54063
C         88.40507      101.28906       77.42512
O         87.23493      101.45973       77.73756
C         90.36457      102.34376       78.65331
C         89.63113      103.66034       78.95525
C         90.63534      104.77264       79.29865
C         89.92179      106.08890       79.63732
N         90.88021      107.11095       80.06019
H         91.25226      100.02431       78.31451
H         88.88664      101.06166       79.51375
H         90.97855      102.45764       77.73490
H         91.04776      102.14204       79.50811
H         88.96685      103.51254       79.83469
H         89.01046      103.95529       78.08131
H         91.33170      104.93625       78.44704
H         91.22824      104.45358       80.18471
H         89.19446      105.91757       80.46199
H         89.36326      106.44818       78.74474
H         91.57552      107.29501       79.30122
H         90.36633      107.99635       80.27352
H         91.37833      106.79768       80.92552
N         88.76614      101.25819       76.10894
C         87.82786      101.51424       75.01288
C         87.33567      100.23987       74.32924
O         86.61702      100.34544       73.34479
C         88.41195      102.56813       74.03641
C         89.55930      102.13399       73.15528
O         90.05716      102.94340       72.38970
O         89.99805      100.86447       73.13190
H         89.74291      101.04306       75.88169
H         86.90760      101.98647       75.42145
H         88.73583      103.44691       74.63622
H         87.60160      102.90623       73.35476
N         87.59585       99.00412       74.84910
C         87.03672       97.76659       74.31903
C         87.52426       97.35218       72.94064
O         86.99797       96.37147       72.43366
H         88.12129       98.93695       75.72829
H         85.93059       97.87620       74.28680
H         87.27059       96.93324       75.01674
N         88.49021       98.03048       72.25640
C         88.84992       97.70269       70.87772
C         89.49613       96.33364       70.69276
O         89.62305       95.93140       69.54345
C         89.74466       98.79715       70.24580
C         91.11893       98.94907       70.85984
N         91.98933       99.84006       70.33485
O         91.45716       98.27564       71.82077
H         88.92060       98.84660       72.69466
H         87.89895       97.70279       70.29830
H         89.21966       99.77489       70.31057
H         89.87928       98.55818       69.16813
H         91.72690      100.41586       69.52176
H         92.93161       99.94793       70.73586
N         89.94726       95.57028       71.73404
C         90.51913       94.24389       71.53535
C         91.97338       94.11463       71.94600
O         92.49935       93.02550       71.77337
H         89.87427       95.92306       72.69961
H         90.46805       93.94238       70.46711
H         89.91597       93.50911       72.11010
N         92.69310       95.13895       72.49860
C         94.10377       94.98301       72.87465
C         94.58111       96.05739       73.84945
O         93.84075       96.97305       74.17223
C         94.99555       94.83477       71.61487
C         94.84653       95.95647       70.60969
C         95.27759       97.26261       70.89757
C         94.28389       95.68697       69.34781
C         95.14760       98.27597       69.94071
C         94.15007       96.70131       68.39726
C         94.58338       98.00058       68.69009
O         94.46585       98.98772       67.77895
H         92.21997       96.02994       72.68530
H         94.19207       94.04904       73.47331
H         94.71354       93.88167       71.12171
H         96.06478       94.72108       71.88985
H         95.72569       97.49881       71.85289
H         93.94483       94.68954       69.09583
H         95.48865       99.27748       70.17037
H         93.71293       96.47402       67.43266
H         94.08499       98.83535       66.90189
N         95.81177       95.93235       74.43130
C         96.25617       96.73711       75.56515
C         97.45264       97.58907       75.19078
O         98.44893       97.07148       74.70751
C         96.61995       95.80294       76.75988
C         95.44748       94.87754       77.18204
C         97.14597       96.60285       77.97199
C         94.21838       95.60084       77.73811
H         96.43455       95.17238       74.12092
H         95.44446       97.41241       75.90844
H         97.44483       95.13210       76.42973
H         95.81427       94.17866       77.96545
H         95.13187       94.25956       76.31465
H         98.06854       97.16049       77.70910
H         96.39644       97.33942       78.32877
H         97.40592       95.91498       78.80394
H         93.44926       94.85135       78.01873
H         94.48064       96.17074       78.65013
H         93.77670       96.28646       76.98875
N         97.42955       98.91584       75.49618
C         98.54220       99.83395       75.32050
C         99.02271      100.33153       76.67867
O         98.43835       99.99184       77.69875
C         98.09058      101.01194       74.43890
O         97.05441      101.71974       75.06994
H         96.58835       99.28811       75.94092
H         99.39245       99.31863       74.82439
H         97.74607      100.60185       73.46120
H         98.93620      101.70650       74.25049
H         96.50551      102.13299       74.35417
N        100.11223      101.14265       76.75581
C        100.63137      101.67987       78.00925
C         99.63646      102.61009       78.67418
O         99.46732      102.52133       79.88195
C        101.93308      102.44404       77.75708
H        100.60283      101.37840       75.87972
H        100.88584      100.84502       78.70151
H        102.68589      101.76092       77.30881
H        101.76570      103.30087       77.07113
H        102.34120      102.82343       78.71928
N         98.95689      103.54347       77.94670
C         98.03468      104.50609       78.54209
C         96.92616      103.81504       79.31795
O         96.81657      104.03521       80.51622
C         97.43721      105.41267       77.45369
H         99.11355      103.57383       76.92687
H         98.60894      105.15272       79.24209
H         98.24887      105.94911       76.91798
H         96.86627      104.82184       76.70508
H         96.75662      106.16495       77.90553
N         96.06013      102.97064       78.69379
C         94.95254      102.30422       79.38364
C         95.39857      101.30548       80.44400
O         94.54997      100.84816       81.19725
C         94.03893      101.61280       78.35441
C         94.73121      100.45301       77.61233
C         93.97336      100.12653       76.36239
O         92.70089       99.72231       76.41628
O         94.47905      100.33128       75.27122
H         96.17009      102.85073       77.67692
H         94.35523      103.10062       79.88276
H         93.74078      102.39976       77.62638
H         93.11933      101.23266       78.84054
H         94.83763       99.56341       78.26998
H         95.74439      100.76942       77.30974
N         96.69493      100.89698       80.54516
C         97.16855       99.95703       81.53950
H         97.96937      100.43680       82.14075
H         96.36457       99.62499       82.22867
H         97.58915       99.06549       81.02905
H         97.38952      101.24399       79.87608
Ca        91.59136      100.16147       74.52851
O         92.13695      102.88698       75.36048
H         93.02331      103.28835       75.17940
H         91.52292      103.65749       75.45382
O         93.56499      101.64860       72.69086
H         94.25357      102.35909       72.67265
H         92.79814      102.03182       72.19555

Ca 1.0



