%chk=holoCaM.loop3.water2.frame199.chk
%nprocshared=20
%mem=10GB
%nosave
#b3lyp/svp scf=(tight,noincore,xqc) Test 
#IOP(5/87=12) Density=Current Pop=(MK,readradii) iop(6/33=2) iop(6/42=6)

holoCaM.loop3.water2.frame199 

   0  1 
C         20.97220       39.83776       -4.19218
C         21.89836       38.66181       -4.24769
O         21.49749       37.63301       -4.77438
H         20.07618       39.58154       -3.58907
H         21.46887       40.72279       -3.74433
H         20.65277       40.09543       -5.22443
N         23.15265       38.73203       -3.71083
C         24.11088       37.64101       -3.80043
C         24.10144       36.81771       -2.50899
O         25.08593       36.80410       -1.78329
C         25.52476       38.20571       -4.14392
C         26.43546       37.12329       -4.65707
O         25.85764       35.97379       -5.02088
O         27.59717       37.35210       -4.94293
H         23.44733       39.59926       -3.23717
H         23.79550       36.97558       -4.63473
H         25.95737       38.71284       -3.25513
H         25.44867       38.95312       -4.96329
N         22.99140       36.09950       -2.16606
C         22.84078       35.34464       -0.91353
C         23.82717       34.21076       -0.68732
O         23.78308       33.67557        0.41348
C         21.40477       34.78539       -0.80246
C         20.40848       35.87202       -0.37816
C         20.39474       36.15741        1.14278
C         19.90380       34.93242        1.95397
N         19.20626       35.34183        3.17271
H         22.19087       36.12984       -2.81515
H         23.02192       36.04270       -0.06819
H         21.31935       33.94962       -0.07785
H         21.12525       34.35903       -1.79129
H         19.38304       35.53366       -0.63688
H         20.59818       36.80662       -0.94929
H         19.66288       36.98023        1.27238
H         21.36882       36.51991        1.54444
H         20.75758       34.25734        2.19507
H         19.17649       34.34653        1.35107
H         18.36196       35.90219        2.90693
H         18.87438       34.49014        3.68142
H         19.82593       35.90764        3.79375
N         24.77976       33.82532       -1.58436
C         25.85209       32.91557       -1.19014
C         27.05593       33.76961       -0.84648
O         27.49238       33.71454        0.29550
C         26.04653       31.74472       -2.17415
C         26.43345       32.10365       -3.57207
O         27.63321       32.65271       -3.83062
O         25.69226       31.80994       -4.49443
H         24.83992       34.28614       -2.50298
H         25.58864       32.39279       -0.24272
H         25.08476       31.18450       -2.20940
H         26.81970       31.05383       -1.77449
N         27.57054       34.67005       -1.73133
C         28.54071       35.68138       -1.34718
C         29.87887       35.45636       -1.99067
O         30.85893       35.35192       -1.26646
H         27.19414       34.71887       -2.68800
H         28.68328       35.70846       -0.24462
H         28.14183       36.67722       -1.63891
N         30.00654       35.38097       -3.34368
C         31.29607       35.22087       -4.01051
C         31.56854       36.35976       -4.98960
O         32.55327       36.28981       -5.71099
C         31.37753       33.83522       -4.68252
C         30.51418       33.66144       -5.90596
N         31.07911       33.34001       -7.09296
O         29.30291       33.78541       -5.82800
H         29.15585       35.43852       -3.92256
H         32.12044       35.22478       -3.26419
H         31.11167       33.05753       -3.93326
H         32.43727       33.66015       -4.96910
H         32.09933       33.22494       -7.18338
H         30.49477       33.18785       -7.92464
N         30.76287       37.46184       -5.04468
C         30.95713       38.56392       -5.97022
C         30.42499       38.29826       -7.37057
O         30.47665       39.21833       -8.17175
H         30.00904       37.57363       -4.35419
H         32.02502       38.87421       -5.98341
H         30.36991       39.42987       -5.59250
N         29.87614       37.09969       -7.73901
C         29.27510       36.85870       -9.05114
C         27.86156       36.33380       -8.88097
O         27.67971       35.37578       -8.14940
C         30.03353       35.79008       -9.86286
C         31.45862       36.13490      -10.20670
C         32.45091       36.15378       -9.21583
C         31.81747       36.39366      -11.54089
C         33.78013       36.42535       -9.55097
C         33.14506       36.67036      -11.87471
C         34.13272       36.68320      -10.87998
O         35.42029       36.93357      -11.19039
H         29.86663       36.32063       -7.06843
H         29.26831       37.78000       -9.67433
H         29.46387       35.65667      -10.81121
H         30.02164       34.81425       -9.34626
H         32.19999       35.93596       -8.18959
H         31.07122       36.37914      -12.32597
H         34.53768       36.42489       -8.77771
H         33.40453       36.86644      -12.90742
H         35.70514       37.10408      -12.09959
N         26.83482       36.83972       -9.62120
C         25.49901       36.24209       -9.64900
C         25.25256       35.66443      -11.03512
O         25.47559       36.35303      -12.01952
C         24.39429       37.24325       -9.19937
C         24.29862       38.51065      -10.08715
C         24.61262       37.59550       -7.71764
C         23.13003       39.42503       -9.71003
H         27.02872       37.62647      -10.25706
H         25.42996       35.39026       -8.93648
H         23.42245       36.70272       -9.26785
H         24.12777       38.20706      -11.13939
H         25.24063       39.09596      -10.03551
H         23.78180       38.20411       -7.31029
H         24.63615       36.66319       -7.11861
H         25.56908       38.14196       -7.57555
H         22.17112       38.86624       -9.76270
H         23.25472       39.84867       -8.69345
H         23.08349       40.27620      -10.42094
N         24.77672       34.39113      -11.17901
C         24.54831       33.76950      -12.48216
C         23.07274       33.77730      -12.82375
O         22.27462       34.22792      -12.02316
C         25.11089       32.33393      -12.48592
O         24.38975       31.50664      -11.60890
H         24.51521       33.86215      -10.33471
H         25.06582       34.34848      -13.27642
H         26.19611       32.33752      -12.23184
H         25.03613       31.89138      -13.50083
H         24.87325       31.50092      -10.74472
N         22.64214       33.30451      -14.02675
C         21.23369       33.25739      -14.41085
C         20.44633       32.36597      -13.47104
O         19.37814       32.76657      -13.02883
C         21.09471       32.74392      -15.84604
H         23.34712       32.96028      -14.69537
H         20.80456       34.28465      -14.39634
H         21.50444       31.71681      -15.94490
H         20.02393       32.73939      -16.14422
H         21.64222       33.42023      -16.53739
N         20.95076       31.16096      -13.08025
C         20.28219       30.26167      -12.14412
C         19.89081       30.98455      -10.87044
O         18.73470       30.92691      -10.47696
C         21.21413       29.09000      -11.79287
H         21.88279       30.89191      -13.43465
H         19.36618       29.84642      -12.61858
H         22.14888       29.45666      -11.31322
H         20.71141       28.39148      -11.09035
H         21.49137       28.52862      -12.70968
N         20.82067       31.69720      -10.18452
C         20.55280       32.39165       -8.92928
C         19.47441       33.44992       -9.11708
O         18.44964       33.36190       -8.45490
C         21.87265       32.97662       -8.37699
C         22.85338       31.82821       -8.03372
C         24.19697       32.33416       -7.62441
O         24.32260       33.08721       -6.52847
O         25.18801       32.05553       -8.27721
H         21.76846       31.73955      -10.58707
H         20.18309       31.65774       -8.17785
H         21.67519       33.57098       -7.45758
H         22.31972       33.65499       -9.13783
H         23.00608       31.16595       -8.90822
H         22.43118       31.21261       -7.21114
N         19.61891       34.45493      -10.02399
C         18.60429       35.45600      -10.29095
H         17.70078       35.32670       -9.65916
H         19.02329       36.46704      -10.10707
H         18.29480       35.38763      -11.35611
H         20.48029       34.50892      -10.57283
Ca        26.27088       34.10275       -6.09800
O         27.69641       31.19599       -6.59062
H         28.62585       31.07430       -6.90821
H         27.39292       30.28561       -6.34742
O         27.85970       32.75168       -9.18828
H         28.68746       32.77112       -9.72930
H         27.17798       33.18311       -9.76214

Ca 1.0



