%chk=holoCaM-CaMKII.loop2.water2.frame170.chk
%nprocshared=20
%mem=10GB
%nosave
#b3lyp/svp scf=(tight,noincore,xqc) Test 
#IOP(5/87=12) Density=Current Pop=(MK,readradii) iop(6/33=2) iop(6/42=6)

holoCaM-CaMKII.loop2.water2.frame170 

   -2  1 
C        122.98110       50.77389        9.88872
C        123.51856       52.17211        9.81456
O        123.30551       52.82940        8.80645
H        121.87558       50.81088        9.76881
H        123.41343       50.15227        9.08010
H        123.20139       50.30533       10.87085
N        124.17206       52.72204       10.87624
C        124.50310       54.13883       10.92284
C        125.60679       54.53313        9.95175
O        126.56309       53.78387        9.80967
C        124.92469       54.57099       12.34657
C        124.61690       56.02825       12.59254
O        124.92914       56.52977       13.65772
O        123.82082       56.68448       11.70758
H        124.31167       52.14712       11.72150
H        123.55110       54.64976       10.67404
H        125.99655       54.32454       12.52196
H        124.32938       54.02316       13.10777
N        125.58867       55.75566        9.34272
C        126.65241       56.25642        8.48016
C        127.29768       57.54181        9.00476
O        128.26380       57.97494        8.39091
C        126.06926       56.52620        7.08905
H        124.78401       56.36769        9.50096
H        127.45656       55.49525        8.38597
H        126.85899       56.87660        6.39087
H        125.61826       55.59983        6.67594
H        125.27921       57.30784        7.15048
N        126.81397       58.23843       10.08011
C        127.31958       59.56407       10.44389
C        127.29108       59.86561       11.94706
O        127.71427       60.95493       12.31117
C        126.58193       60.63492        9.60727
C        125.08426       60.50329        9.64626
O        124.41871       60.60949       10.80332
O        124.46251       60.29154        8.61732
H        125.93978       57.92662       10.51948
H        128.39567       59.64723       10.17070
H        126.90011       60.52030        8.54804
H        126.88497       61.65377        9.93301
N        126.87953       58.96376       12.88668
C        126.96524       59.22178       14.32140
C        126.04168       60.30931       14.85275
O        126.16195       60.62469       16.02825
H        126.58048       58.02779       12.59470
H        128.01685       59.49125       14.56231
H        126.72631       58.28963       14.87804
N        125.09996       60.92519       14.07975
C        124.23840       62.00788       14.56398
C        123.19485       61.58715       15.61555
O        122.42037       62.44280       16.02320
C        123.56193       62.74514       13.37973
C        122.52232       61.97758       12.60814
N        121.84168       62.60318       11.62114
O        122.28032       60.81000       12.86595
H        125.03059       60.65615       13.09481
H        124.89657       62.77808       15.02429
H        124.34569       63.08569       12.66719
H        123.06102       63.65144       13.78252
H        122.03562       63.58737       11.38932
H        121.10615       62.11861       11.09590
N        123.12638       60.32441       16.13374
C        122.21939       59.94083       17.20544
C        120.82782       59.51420       16.76328
O        120.06003       59.14228       17.63620
H        123.83085       59.62973       15.87058
H        122.16228       60.75436       17.96266
H        122.65626       59.05880       17.72143
N        120.42124       59.52948       15.45804
C        119.07618       59.12089       15.03131
C        119.12822       58.05110       13.94373
O        120.20154       57.68498       13.50034
C        118.30017       60.35874       14.50982
C        118.11923       61.42427       15.59809
O        118.90479       60.90050       13.35953
H        121.06754       59.87493       14.74301
H        118.50616       58.69561       15.88452
H        117.27276       60.05147       14.22553
H        119.71173       61.40357       13.64050
H        117.51113       62.26345       15.20049
H        117.59036       60.98557       16.47120
H        119.09987       61.82147       15.93439
N        117.96350       57.56354       13.41631
C        117.91743       56.71572       12.23177
C        117.50905       57.61804       11.08402
O        116.49704       58.29740       11.17366
C        116.92344       55.52638       12.38247
C        117.24829       54.67300       13.63211
C        116.95964       54.65605       11.10163
C        116.21380       53.57103       13.89019
H        117.06695       57.91116       13.78084
H        118.92126       56.28413       12.01946
H        115.89911       55.94248       12.50597
H        117.24424       55.33084       14.52674
H        118.25884       54.21817       13.53855
H        116.71347       55.25579       10.20422
H        117.96933       54.21171       10.95826
H        116.21291       53.83938       11.13226
H        116.46143       53.04057       14.83271
H        115.19917       54.01340       13.98952
H        116.20346       52.81532       13.07927
N        118.26797       57.65234        9.96037
C        118.00102       58.50474        8.81205
C        117.26702       57.69790        7.74897
O        117.05066       56.51836        7.96088
C        119.35534       59.10162        8.36794
C        119.85178       60.10026        9.39602
O        119.23248       61.14666        9.50349
O        120.92814       59.91875       10.21183
H        119.05167       56.99486        9.88848
H        117.29234       59.31974        9.08153
H        119.25169       59.63688        7.39911
H        120.08687       58.28135        8.21924
N        116.73626       58.28743        6.63444
C        115.85257       57.54857        5.72676
C        116.56347       56.37383        5.06159
O        116.05748       55.26752        5.20083
C        115.13733       58.47807        4.70849
C        114.11922       57.73572        3.86148
C        114.24406       57.69927        2.45969
C        113.02574       57.08275        4.46271
C        113.29815       57.02128        1.68137
C        112.08581       56.40438        3.68070
C        112.22128       56.37359        2.29153
H        116.88386       59.29646        6.48462
H        115.02966       57.13422        6.35052
H        115.85471       58.99515        4.05279
H        114.59876       59.27346        5.26706
H        115.07037       58.19509        1.96617
H        112.89428       57.09811        5.53628
H        113.39828       56.99811        0.60364
H        111.24980       55.90408        4.15275
H        111.49023       55.84968        1.68850
N        117.72705       56.48869        4.34617
C        118.42367       55.35566        3.73884
C        118.71615       54.24633        4.73409
O        118.56544       53.07613        4.41780
C        119.75612       55.96380        3.26994
C        119.36216       57.38513        2.95804
C        118.47424       57.71706        4.14768
H        117.83626       54.98454        2.87004
H        120.47356       56.03308        4.12108
H        120.24858       55.40607        2.44531
H        120.20587       58.08999        2.80229
H        118.72705       57.37123        2.04217
H        119.06829       57.92509        5.06661
H        117.87675       58.59739        3.87651
N        119.15104       54.58594        5.97499
C        119.55224       53.65063        7.01832
C        118.41060       52.72012        7.38098
O        118.61381       51.51411        7.39999
C        120.05236       54.43554        8.25048
C        121.25487       55.33414        7.87593
C        121.75886       56.15098        9.01170
O        122.62531       56.98055        8.79706
O        121.25019       56.01591       10.24924
H        119.18540       55.59205        6.18295
H        120.41226       53.04037        6.66260
H        120.36454       53.72352        9.04649
H        119.22562       55.06082        8.64799
H        120.98075       56.06731        7.09537
H        122.08855       54.71826        7.48083
N        117.16600       53.20652        7.63297
C        116.04101       52.35168        7.93735
H        115.11849       52.96415        8.03387
H        115.88921       51.61799        7.11681
H        116.21845       51.81675        8.89303
H        116.99685       54.21439        7.56675
Ca       122.37660       58.38409       11.14220
O        122.73245       57.98273       14.21195
H        122.94232       57.47528       15.03611
H        123.55283       58.49176       13.99467
O        121.60386       55.10862       13.22623
H        121.28520       54.69256       12.38760
H        121.90248       54.34434       13.77864

Ca 1.0



