%chk=holoCaM.loop3.water2.frame96.chk
%nprocshared=20
%mem=10GB
%nosave
#b3lyp/svp scf=(tight,noincore,xqc) Test 
#IOP(5/87=12) Density=Current Pop=(MK,readradii) iop(6/33=2) iop(6/42=6)

holoCaM.loop3.water2.frame96 

   0  1 
C         99.57014       19.06284       44.73097
C         98.97014       18.03661       43.82361
O         98.93876       16.87048       44.19166
H        100.42844       19.54911       44.22334
H         98.80570       19.82562       44.98523
H         99.93010       18.58817       45.66942
N         98.48304       18.40175       42.60311
C         97.88803       17.45076       41.67863
C         98.74902       17.35809       40.43350
O         98.86744       18.34312       39.71620
C         96.45153       17.89089       41.32907
C         95.71424       16.85432       40.53474
O         96.22191       15.77325       40.29771
O         94.46947       17.10463       40.10309
H         98.54808       19.39100       42.31598
H         97.83446       16.44899       42.15787
H         96.47945       18.84511       40.75866
H         95.87444       18.07404       42.25762
N         99.42175       16.20714       40.14024
C        100.31930       16.10336       38.99406
C         99.58606       15.93926       37.67072
O        100.24131       16.07909       36.64671
C        101.31467       14.93998       39.16885
C        102.26877       15.08934       40.37036
C        103.17878       16.32464       40.25038
C        104.28814       16.31302       41.30855
N        105.15723       17.48118       41.16203
H         99.36071       15.41912       40.80285
H        100.89972       17.04785       38.92358
H        101.94540       14.85751       38.25632
H        100.74396       13.99101       39.27302
H        102.90744       14.17972       40.37900
H        101.70763       15.12341       41.32955
H        102.57958       17.25330       40.36449
H        103.65948       16.32581       39.24802
H        104.89813       15.39060       41.18252
H        103.84392       16.30606       42.32830
H        104.61301       18.35765       41.33354
H        105.93427       17.42105       41.85880
H        105.57010       17.50669       40.20085
N         98.25322       15.64756       37.59430
C         97.52461       15.59480       36.32903
C         96.51674       16.73360       36.21900
O         95.91391       16.87519       35.16403
C         96.94753       14.18882       36.04151
C         95.89662       13.59866       36.98116
O         94.74260       14.37576       37.08140
O         96.37481       13.35672       38.27008
H         97.72641       15.49189       38.45918
H         98.22873       15.77774       35.48839
H         97.79273       13.46769       36.01056
H         96.49644       14.20199       35.02622
N         96.36730       17.65455       37.21789
C         95.64762       18.90314       37.05328
C         94.15297       18.81059       36.87156
O         93.56864       19.86767       36.67287
H         96.88946       17.55504       38.09624
H         96.08007       19.43457       36.17756
H         95.82640       19.53875       37.94878
N         93.43904       17.64424       36.92410
C         91.99187       17.65549       36.70409
C         91.24420       18.42217       37.79940
O         90.06017       18.67499       37.63228
C         91.41019       16.23445       36.51705
C         91.21217       15.47035       37.80325
N         89.98046       15.02557       38.15208
O         92.16077       15.25261       38.53518
H         93.92555       16.75215       37.07884
H         91.84147       18.17299       35.72986
H         92.06375       15.65710       35.82690
H         90.42061       16.33394       36.02193
H         89.16332       15.19544       37.54726
H         89.83649       14.50715       39.03031
N         91.87291       18.79481       38.95581
C         91.25538       19.54825       40.02980
C         91.16385       18.75970       41.32208
O         90.74982       19.35314       42.30938
H         92.85391       18.54371       39.10672
H         90.22881       19.87765       39.76146
H         91.86979       20.45858       40.19883
N         91.43585       17.41796       41.39086
C         91.18147       16.61750       42.58820
C         92.40046       15.79551       42.98636
O         93.35917       15.75304       42.23031
C         89.97334       15.68017       42.33924
C         88.71671       16.43104       41.94291
C         88.60663       17.04747       40.68100
C         87.63241       16.51455       42.83204
C         87.45340       17.74856       40.32711
C         86.47663       17.21762       42.47577
C         86.38589       17.84038       41.22236
O         85.28065       18.52543       40.86721
H         91.73134       16.91564       40.54126
H         90.93019       17.28085       43.44496
H         89.78015       15.11789       43.27685
H         90.20554       14.93416       41.54966
H         89.40834       16.98876       39.96054
H         87.68402       16.04613       43.80667
H         87.39202       18.22091       39.35427
H         85.65387       17.27984       43.17603
H         84.51968       18.61612       41.45781
N         92.40697       15.07435       44.14888
C         93.51151       14.21122       44.58577
C         93.02668       13.16135       45.57662
O         92.23751       13.46804       46.46107
C         94.76847       14.96804       45.14486
C         94.47461       15.85542       46.38555
C         95.49404       15.79437       44.08215
C         94.83994       15.16572       47.70024
H         91.54724       15.08939       44.71871
H         93.84717       13.64108       43.70161
H         95.53179       14.20426       45.41918
H         93.41984       16.20486       46.37706
H         95.11121       16.76779       46.36871
H         94.89643       16.67524       43.78818
H         96.45074       16.17130       44.49983
H         95.74585       15.16135       43.20321
H         94.62933       15.85175       48.54774
H         94.28428       14.22158       47.84877
H         95.93129       14.94471       47.70558
N         93.53758       11.89975       45.51509
C         93.21020       10.82348       46.44067
C         94.37393       10.60386       47.38720
O         95.35149       11.32678       47.29567
C         92.89068        9.54210       45.64148
O         94.01474        9.10073       44.92074
H         94.25923       11.70339       44.81001
H         92.32537       11.08902       47.05876
H         92.02562        9.71634       44.96093
H         92.58075        8.72247       46.32197
H         93.93470        9.45551       43.99728
N         94.33756        9.62826       48.33524
C         95.44632        9.35317       49.24717
C         96.70745        8.98316       48.48598
O         97.76409        9.51119       48.80096
C         95.07538        8.21866       50.20448
H         93.48802        9.04722       48.40424
H         95.64729       10.25161       49.87427
H         95.90948        8.03517       50.91591
H         94.17632        8.50416       50.79167
H         94.86151        7.28257       49.64685
N         96.65620        8.10787       47.44136
C         97.81940        7.73533       46.63838
C         98.51931        8.96210       46.07820
O         99.71025        9.12325       46.30502
C         97.38701        6.81278       45.48995
H         95.73656        7.71415       47.18744
H         98.53773        7.17261       47.27497
H         96.90912        5.89663       45.89767
H         96.65634        7.32250       44.82475
H         98.26790        6.50947       44.88520
N         97.82372        9.88672       45.36348
C         98.41268       11.11177       44.82265
C         99.06493       11.95773       45.90837
O        100.15122       12.46704       45.67065
C         97.34393       11.91003       44.04347
C         96.99143       11.16481       42.74037
C         95.93015       11.84792       41.93708
O         94.65632       11.85894       42.36169
O         96.20406       12.32643       40.85127
H         96.81526        9.71863       45.22260
H         99.21733       10.85379       44.09779
H         97.74548       12.90822       43.75962
H         96.45833       12.07094       44.68976
H         96.65101       10.12689       42.93600
H         97.91905       11.11442       42.12852
N         98.50193       12.09664       47.13892
C         99.10891       12.83549       48.22772
H        100.06051       13.32376       47.93186
H         98.40433       13.61603       48.58183
H         99.32119       12.13922       49.06745
H         97.62028       11.62229       47.33725
Ca        94.46835       14.02227       39.30996
O         91.92419       12.87719       40.75243
H         91.72380       12.68918       41.70353
H         91.05482       12.77403       40.29023
O         92.81733       12.15174       37.71624
H         92.14122       11.43089       37.67619
H         92.95492       12.41759       36.77260

Ca 1.0



