%chk=holoCaM-CaMKII.loop4.water2.frame263.chk
%nprocshared=20
%mem=10GB
%nosave
#b3lyp/svp scf=(tight,noincore,xqc) Test 
#IOP(5/87=12) Density=Current Pop=(MK,readradii) iop(6/33=2) iop(6/42=6)

holoCaM-CaMKII.loop4.water2.frame263 

   -3  1 
C         69.80293       89.67956       49.91337
C         68.98808       88.76031       50.76223
O         68.86096       88.99310       51.95438
H         70.63528       89.11127       49.45046
H         69.15579       90.10128       49.11440
H         70.21333       90.51265       50.52047
N         68.35881       87.70515       50.18676
C         67.45816       86.83680       50.91965
C         68.23247       85.79781       51.72182
O         69.02544       85.07692       51.13252
C         66.47572       86.20075       49.92609
C         65.32004       85.61250       50.63645
O         64.34924       85.24347       50.01325
O         65.34765       85.49672       51.96388
H         68.43689       87.59297       49.16324
H         66.83607       87.47927       51.58794
H         66.96114       85.45859       49.25745
H         66.04793       87.02000       49.30843
N         68.05198       85.67316       53.07283
C         68.86695       84.81053       53.93003
C         68.05107       83.65086       54.54404
O         68.67197       82.75033       55.09099
C         69.57091       85.71786       55.00143
C         70.24199       86.97475       54.37080
C         70.58621       84.97846       55.88965
C         71.36271       86.69688       53.36475
H         67.34562       86.26393       53.52519
H         69.65127       84.32496       53.30988
H         68.77564       86.10806       55.67517
H         70.64846       87.62286       55.17742
H         69.46557       87.57253       53.85916
H         70.10377       84.17250       56.47415
H         71.41096       84.54607       55.28733
H         71.02125       85.68895       56.62738
H         72.21699       86.18337       53.84834
H         71.00110       86.08672       52.51516
H         71.72719       87.66246       52.95288
N         66.68077       83.57834       54.47319
C         65.89064       82.42402       54.94121
C         64.98099       81.82264       53.84771
O         64.35939       80.80276       54.11362
C         65.08330       82.74014       56.23193
C         64.09293       83.86956       56.17553
O         63.35634       84.07601       57.12390
O         64.01914       84.67741       55.11970
H         66.17513       84.37139       54.06838
H         66.58187       81.60222       55.23482
H         65.78725       82.96749       57.05987
H         64.52483       81.81962       56.51212
N         64.90219       82.34391       52.58831
C         64.18490       81.72416       51.47872
C         62.68041       81.93918       51.45484
O         61.94797       80.96517       51.35418
H         65.48342       83.15133       52.35084
H         64.44658       80.64418       51.41802
H         64.55263       82.19216       50.54078
N         62.15927       83.20158       51.44337
C         60.74551       83.51668       51.20316
C         60.57522       84.47807       50.01101
O         59.48080       84.98874       49.81652
C         60.08524       84.06173       52.49670
C         60.60555       85.36316       53.02991
O         61.46360       85.98072       52.44170
O         60.10151       85.87020       54.16875
H         62.80885       83.98732       51.58018
H         60.17059       82.59501       50.96245
H         60.20656       83.29572       53.29065
H         58.99759       84.19999       52.31491
N         61.60320       84.74043       49.14769
C         61.52160       85.66227       48.01942
C         61.47011       87.13982       48.39047
O         61.34791       87.94302       47.47655
H         62.47008       84.20231       49.23923
H         60.64399       85.39273       47.39471
H         62.43221       85.54000       47.39107
N         61.57007       87.58313       49.67841
C         61.52152       88.99401       50.06255
C         62.74191       89.40564       50.88007
O         63.55062       88.56102       51.23986
C         60.25652       89.28656       50.89949
C         58.95648       88.90261       50.18395
C         57.77379       89.62561       50.78561
N         57.45953       89.51270       52.09730
O         57.09975       90.35125       50.06941
H         61.68219       86.89482       50.41663
H         61.48481       89.63404       49.15461
H         60.23731       90.37837       51.10239
H         60.29059       88.75121       51.87290
H         58.81853       87.79949       50.23035
H         59.02265       89.20012       49.11569
H         58.01609       88.92369       52.73199
H         56.66072       90.03944       52.48333
N         62.91229       90.71853       51.22396
C         63.97142       91.21368       52.09843
C         63.32056       91.96461       53.25819
O         62.57439       92.90068       53.00364
C         64.95294       92.13353       51.31213
C         66.09629       92.63373       52.21463
C         65.57543       91.38467       50.12161
H         62.24737       91.41391       50.85160
H         64.57314       90.37309       52.49129
H         64.40145       93.01700       50.92124
H         66.78015       93.30102       51.64786
H         65.70636       93.21219       53.07418
H         66.68894       91.77685       52.59437
H         66.13775       90.49063       50.47071
H         64.79189       91.05901       49.40735
H         66.27789       92.04961       49.57370
N         63.60302       91.64455       54.55687
C         63.09356       92.40949       55.70088
C         64.16627       93.37141       56.17999
O         65.22204       93.37953       55.58159
C         62.56801       91.49877       56.83718
C         63.62694       90.74558       57.61122
N         64.26384       89.67644       57.08989
O         63.87680       91.08460       58.75794
H         64.30795       90.91888       54.72370
H         62.23552       93.03616       55.37349
H         61.80141       90.78934       56.45920
H         62.05395       92.16568       57.56173
H         64.03673       89.32482       56.15205
H         64.95418       89.16430       57.65758
N         63.96446       94.25565       57.20089
C         64.97185       95.25064       57.58147
C         66.25158       94.62067       58.12052
O         67.32531       95.07471       57.75187
C         64.40185       96.28702       58.57506
C         65.38246       97.42082       58.81814
C         65.85602       98.19958       57.74265
C         65.83863       97.70896       60.11546
C         66.78206       99.22226       57.95759
C         66.75963       98.74199       60.32893
C         67.24009       99.49622       59.24801
O         68.13991      100.48287       59.43522
H         63.04954       94.26548       57.67579
H         65.22694       95.81538       56.66017
H         64.12648       95.78163       59.52693
H         63.47754       96.72646       58.14095
H         65.52151       98.01476       56.73066
H         65.48491       97.13500       60.96228
H         67.14652       99.80001       57.11689
H         67.10333       98.95232       61.33362
H         68.49429      100.69896       60.30925
N         66.21711       93.56366       58.97916
C         67.41900       92.87965       59.46515
C         68.27380       92.40555       58.28860
O         69.45663       92.71349       58.25649
C         67.00713       91.74029       60.42789
C         68.20075       91.02989       61.08483
C         67.73033       90.07413       62.14798
O         67.97771       88.88218       62.06191
O         67.04884       90.53554       63.21562
H         65.29304       93.21253       59.27166
H         68.02444       93.59633       60.06462
H         66.37097       90.99253       59.90662
H         66.40234       92.20886       61.23741
H         68.86725       91.77438       61.57049
H         68.78119       90.48392       60.30976
N         67.71773       91.73083       57.24460
C         68.44918       91.37614       56.02067
C         69.00851       92.60773       55.31055
O         70.13266       92.54697       54.83410
C         67.53208       90.57426       55.07113
C         67.28231       89.17139       55.65386
C         66.28180       88.34180       54.90332
O         65.96801       87.11981       55.37263
O         65.72993       88.75795       53.89944
H         66.71070       91.50992       57.30277
H         69.31210       90.71788       56.26395
H         68.01273       90.44376       54.07776
H         66.58325       91.13272       54.92897
H         66.92847       89.26066       56.69401
H         68.24460       88.62176       55.67717
N         68.29687       93.76345       55.22984
C         68.75619       94.97738       54.58797
H         69.75126       94.85673       54.11508
H         68.02310       95.27856       53.80949
H         68.81581       95.79044       55.34359
H         67.38798       93.80646       55.67792
Ca        63.82297       86.05520       53.42893
O         61.84808       88.80495       54.21009
H         61.06893       89.35209       53.94283
H         61.52029       88.29541       54.99091
O         62.86885       86.93816       56.64581
H         62.39077       87.54976       57.25965
H         63.70325       86.70802       57.12519

Ca 1.0



