%chk=holoCaM.loop3.water2.frame310.chk
%nprocshared=20
%mem=10GB
%nosave
#b3lyp/svp scf=(tight,noincore,xqc) Test 
#IOP(5/87=12) Density=Current Pop=(MK,readradii) iop(6/33=2) iop(6/42=6)

holoCaM.loop3.water2.frame310 

   0  1 
C          2.10601       40.38094       68.31866
C          1.27551       41.55115       68.75110
O          0.55679       41.44835       69.73476
H          3.18067       40.65593       68.36235
H          1.92954       39.50595       68.97891
H          1.84420       40.10076       67.27596
N          1.31298       42.70267       68.02905
C          0.53706       43.89017       68.35381
C         -0.52358       44.01454       67.28686
O         -0.24281       44.48425       66.19246
C          1.51928       45.07390       68.46246
C          0.99106       46.44821       68.75894
O          1.80608       47.33978       68.89096
O         -0.31140       46.73878       68.91195
H          1.90028       42.72789       67.17927
H          0.02701       43.76737       69.33328
H          2.08649       45.15915       67.51064
H          2.24131       44.82269       69.26670
N         -1.73475       43.42113       67.50080
C         -2.74507       43.27191       66.46072
C         -3.60206       44.51980       66.31326
O         -4.42152       44.54834       65.40549
C         -3.59818       42.00508       66.71375
C         -2.71513       40.73820       66.73117
C         -3.54296       39.45573       66.89193
C         -2.67129       38.18825       67.00334
N         -1.84331       37.96040       65.81641
H         -1.89197       42.94906       68.40489
H         -2.23237       43.10420       65.48632
H         -4.34292       41.90225       65.89385
H         -4.14658       42.09774       67.67717
H         -1.98757       40.79695       67.56857
H         -2.15400       40.68999       65.77433
H         -4.23934       39.35248       66.03139
H         -4.14677       39.53038       67.82249
H         -3.34815       37.31595       67.14140
H         -2.01828       38.25671       67.90177
H         -1.11438       38.70330       65.72556
H         -1.35176       37.04290       65.91748
H         -2.43830       37.93169       64.95712
N         -3.44432       45.60402       67.13113
C         -4.14785       46.86879       66.94138
C         -3.17736       47.98199       66.53238
O         -3.63202       49.08991       66.28404
C         -4.98773       47.20031       68.19151
C         -4.18151       47.31669       69.45382
O         -4.40484       46.46282       70.47074
O         -3.33804       48.18841       69.57398
H         -2.76257       45.56398       67.90183
H         -4.86913       46.78568       66.09870
H         -5.73084       46.38328       68.32644
H         -5.55272       48.14358       68.02948
N         -1.84376       47.73656       66.34917
C         -0.91133       48.67458       65.74682
C         -0.54906       49.91086       66.54567
O          0.24077       50.68069       66.01635
H         -1.46898       46.79563       66.51953
H         -1.31751       48.98766       64.75992
H          0.04258       48.13532       65.55325
N         -1.04846       50.20687       67.78393
C         -0.68335       51.45819       68.45844
C          0.79562       51.54558       68.84259
O          1.25039       52.63893       69.15203
C         -1.55230       51.75275       69.70045
C         -1.40646       50.77943       70.84643
N         -1.88801       51.11008       72.06561
O         -0.85031       49.70420       70.69095
H         -1.73128       49.57496       68.21883
H         -0.88977       52.27621       67.73242
H         -2.62580       51.81655       69.42249
H         -1.24440       52.75500       70.07046
H         -2.34287       52.02141       72.22057
H         -1.77734       50.47124       72.86459
N          1.59108       50.44277       68.88779
C          3.01057       50.46988       69.20455
C          3.37074       49.74413       70.48836
O          4.55849       49.59245       70.72582
H          1.16980       49.53479       68.67576
H          3.39839       51.50789       69.29527
H          3.54905       49.98795       68.36016
N          2.42937       49.33012       71.39479
C          2.78427       48.69550       72.66608
C          2.02390       47.39472       72.86742
O          1.09638       47.11096       72.12829
C          2.48057       49.63934       73.84963
C          3.09717       51.00275       73.66395
C          2.44663       51.96052       72.86535
C          4.31292       51.33460       74.28085
C          3.00560       53.22590       72.68160
C          4.87588       52.60085       74.08847
C          4.22262       53.55063       73.28761
O          4.75271       54.77476       73.09380
H          1.44252       49.52937       71.21956
H          3.87221       48.46920       72.67931
H          2.86733       49.17096       74.78183
H          1.38669       49.77325       73.99000
H          1.50122       51.72929       72.38949
H          4.83054       50.61101       74.89822
H          2.49103       53.95329       72.06622
H          5.81950       52.84213       74.56076
H          5.59480       55.03947       73.49004
N          2.39807       46.54328       73.86997
C          1.70358       45.29301       74.17545
C          1.45047       45.25880       75.68072
O          2.39573       45.42326       76.43656
C          2.53916       44.06977       73.69085
C          2.90956       44.24804       72.19065
C          1.72544       42.77412       73.89979
C          3.73939       43.11121       71.59330
H          3.24193       46.77293       74.41442
H          0.73650       45.24440       73.62752
H          3.48145       44.00756       74.27887
H          3.52103       45.16907       72.07941
H          1.98411       44.36782       71.58715
H          2.31069       41.87841       73.61126
H          1.44719       42.64452       74.96556
H          0.79465       42.79995       73.29098
H          3.16379       42.16470       71.55986
H          4.01073       43.37015       70.54731
H          4.67325       42.96532       72.17551
N          0.20047       45.04063       76.18487
C         -0.10838       45.10813       77.61668
C         -0.34678       43.72904       78.20397
O         -0.26774       42.75304       77.48542
C         -1.34439       46.00459       77.81353
O         -2.47146       45.42000       77.20877
H         -0.56234       44.81999       75.53065
H          0.74215       45.55051       78.17814
H         -1.13186       47.01346       77.38837
H         -1.56538       46.14949       78.89123
H         -2.83790       46.06994       76.55533
N         -0.64279       43.58259       79.52965
C         -0.95830       42.29560       80.15037
C         -2.18007       41.68142       79.50340
O         -2.14086       40.51403       79.13857
C         -1.23224       42.47878       81.64705
H         -0.67099       44.42766       80.11828
H         -0.09229       41.60266       80.05590
H         -0.33459       42.89772       82.14801
H         -2.09145       43.16312       81.81393
H         -1.46390       41.49557       82.11228
N         -3.28563       42.44658       79.27956
C         -4.49179       41.97374       78.60916
C         -4.15196       41.26100       77.31796
O         -4.60547       40.14621       77.10318
C         -5.40817       43.17216       78.30330
H         -3.23855       43.44272       79.54856
H         -5.04062       41.27018       79.27162
H         -6.33595       42.83776       77.79302
H         -5.68943       43.69235       79.24318
H         -4.89285       43.90657       77.64424
N         -3.33828       41.86187       76.41685
C         -2.99775       41.28684       75.12369
C         -2.21118       39.99471       75.28257
O         -2.68752       38.96011       74.83624
C         -2.25526       42.34422       74.29032
C         -3.20319       43.53979       74.04223
C         -2.54786       44.59539       73.23855
O         -2.09730       44.27044       72.02292
O         -2.45353       45.73943       73.65437
H         -2.96234       42.78797       76.66847
H         -3.93797       41.05056       74.57562
H         -1.95027       41.90851       73.31316
H         -1.33736       42.67626       74.82321
H         -3.56507       43.99347       74.98650
H         -4.08774       43.18630       73.47126
N         -1.01353       39.96658       75.92487
C         -0.27282       38.74320       76.14279
H          0.66012       38.96153       76.70654
H         -0.88396       38.03394       76.74120
H         -0.00345       38.27886       75.17151
H         -0.61546       40.83521       76.28563
Ca        -1.28881       45.76412       70.62611
O         -1.11473       48.24747       74.08352
H         -2.06114       48.45763       74.28293
H         -0.60609       48.74634       74.76939
O         -4.24912       48.30653       72.74816
H         -4.65679       49.19941       72.87557
H         -4.94710       47.66817       73.04125

Ca 1.0



