%chk=holoCaM.loop4.water3.frame468.chk
%nprocshared=20
%mem=10GB
%nosave
#b3lyp/svp scf=(tight,noincore,xqc) Test 
#IOP(5/87=12) Density=Current Pop=(MK,readradii) iop(6/33=2) iop(6/42=6)

holoCaM.loop4.water3.frame468 

   -3  1 
C         21.67251       55.28620      101.03130
C         21.46949       54.06308      101.86768
O         22.03516       53.03394      101.53059
H         22.76151       55.49875      100.97403
H         21.28282       55.11139      100.00699
H         21.16285       56.16598      101.47365
N         20.66828       54.08966      102.97249
C         20.51940       52.93547      103.84627
C         19.30343       53.08152      104.76118
O         19.19614       54.06192      105.48388
C         21.82414       52.71769      104.65930
C         21.76964       51.45199      105.46420
O         22.72454       51.09072      106.12998
O         20.64176       50.72818      105.42920
H         20.15109       54.95429      103.19170
H         20.34653       52.03931      103.20814
H         22.01718       53.58706      105.32236
H         22.67873       52.61195      103.95789
N         18.36451       52.08719      104.78724
C         17.13995       52.10347      105.57617
C         17.19157       51.01690      106.65694
O         16.94484       51.33625      107.81166
C         15.91114       51.90175      104.63048
C         15.94149       52.92676      103.46224
C         14.59262       52.00909      105.42545
C         14.82811       52.72816      102.42969
H         18.51880       51.25898      104.19688
H         17.01671       53.08941      106.07968
H         15.97112       50.88256      104.18805
H         16.89716       52.81454      102.90856
H         15.89404       53.96419      103.85827
H         14.48077       53.02655      105.85840
H         13.71523       51.79686      104.78211
H         14.56117       51.26584      106.24819
H         14.85944       51.69618      102.01914
H         13.82849       52.92461      102.86614
H         14.97185       53.44359      101.59240
N         17.48838       49.71417      106.35598
C         17.35297       48.60665      107.30859
C         18.63085       48.19934      108.05649
O         18.57274       47.24981      108.82566
C         16.62985       47.42351      106.62693
C         17.34427       46.63298      105.54936
O         18.61696       46.84297      105.14861
O         16.74503       45.69110      105.05609
H         17.70338       49.48016      105.37858
H         16.65385       48.92265      108.11500
H         15.67782       47.80946      106.20012
H         16.36258       46.68947      107.41828
N         19.78816       48.91108      107.95823
C         20.99423       48.65908      108.74294
C         21.74235       47.35343      108.49264
O         22.76254       47.16947      109.14252
H         19.78941       49.75267      107.37611
H         20.73113       48.71272      109.82093
H         21.71441       49.48053      108.53327
N         21.32797       46.39587      107.61339
C         22.03191       45.11775      107.44203
C         23.40701       45.21678      106.76549
O         24.03788       44.17934      106.61345
C         21.14473       44.09493      106.68491
C         20.71895       44.49254      105.29779
O         21.01802       45.69967      104.79444
O         20.05567       43.71780      104.62878
H         20.44672       46.54388      107.10753
H         22.19125       44.67516      108.45130
H         20.22298       43.91443      107.27721
H         21.69451       43.13023      106.61743
N         23.94888       46.39320      106.33608
C         25.22938       46.45267      105.63338
C         25.16369       45.84317      104.24134
O         26.20423       45.48978      103.70176
H         23.45316       47.27348      106.51029
H         26.01465       45.96370      106.24979
H         25.54098       47.50951      105.49807
N         23.97342       45.71664      103.59070
C         23.79384       45.20107      102.23820
C         22.89333       46.13686      101.43067
O         22.47754       47.16433      101.95446
C         23.17277       43.79043      102.29200
C         24.05221       42.80358      103.07859
C         23.59065       41.37119      102.95446
N         24.27947       40.38940      103.57928
O         22.61238       41.08391      102.27911
H         23.13258       46.02199      104.08134
H         24.77555       45.11136      101.72089
H         23.09158       43.40913      101.25357
H         22.15498       43.82348      102.73732
H         24.06021       43.09102      104.15121
H         25.09185       42.85108      102.68876
H         25.10863       40.61089      104.14982
H         23.98750       39.40514      103.48751
N         22.52973       45.83889      100.15097
C         21.67870       46.69210       99.32582
C         20.39686       45.94742       98.96269
O         20.47163       44.83538       98.45431
C         22.46060       47.13909       98.06178
C         21.61692       48.08476       97.19126
C         23.76503       47.85642       98.45243
H         22.88322       44.97036       99.71912
H         21.40122       47.62119       99.87335
H         22.72546       46.24349       97.45675
H         20.69005       47.58439       96.84475
H         21.33946       48.99854       97.76099
H         22.19119       48.38898       96.29081
H         23.54922       48.75782       99.06640
H         24.42886       47.18225       99.03332
H         24.32092       48.16841       97.54285
N         19.18183       46.54056       99.14869
C         17.89333       45.93721       98.80588
C         17.33093       46.61312       97.56099
O         17.94102       47.53926       97.05779
C         16.95378       46.10192      100.03017
C         15.55716       45.55185       99.88723
N         15.34667       44.22838       99.70851
O         14.60090       46.31001       99.96122
H         19.16607       47.50770       99.50484
H         18.02270       44.85973       98.56330
H         16.88016       47.18864      100.26399
H         17.40831       45.58876      100.89742
H         16.13716       43.57083       99.65806
H         14.38704       43.86111       99.63132
N         16.19560       46.15628       96.96773
C         15.60430       46.75403       95.76565
C         14.90208       48.09270       96.02549
O         14.45175       48.69432       95.05866
C         14.68712       45.72137       95.06889
C         13.58671       45.20169       95.96154
C         13.69608       43.91527       96.51849
C         12.46293       45.98499       96.26110
C         12.71237       43.43141       97.37984
C         11.46925       45.49202       97.11302
C         11.59671       44.21561       97.68214
O         10.65784       43.73331       98.51979
H         15.78530       45.29613       97.34728
H         16.42449       46.94749       95.03732
H         15.35164       44.87307       94.79006
H         14.26574       46.11137       94.11667
H         14.55991       43.29582       96.30846
H         12.35247       46.97170       95.83198
H         12.82482       42.44801       97.81845
H         10.60509       46.10489       97.33448
H          9.87250       44.24405       98.76062
N         14.81466       48.65180       97.27018
C         14.28403       49.99181       97.53339
C         15.41299       50.96321       97.86762
O         15.13337       52.11397       98.16342
C         13.28113       49.94952       98.71141
C         11.98395       49.19696       98.39489
C         11.19594       49.89024       97.31712
O         10.91975       49.30644       96.28214
O         10.78538       51.16180       97.49354
H         15.22368       48.15253       98.07343
H         13.78266       50.41760       96.63689
H         12.99776       50.98408       99.00694
H         13.77643       49.47955       99.59014
H         11.35568       49.17211       99.31133
H         12.21606       48.15158       98.10830
N         16.71724       50.57165       97.80274
C         17.85531       51.41726       98.11926
C         18.67140       51.59769       96.85114
O         18.84789       52.72779       96.41603
C         18.67198       50.74311       99.24319
C         17.80667       50.50440      100.49986
C         18.49531       49.69534      101.56325
O         17.82133       49.37104      102.68123
O         19.63328       49.28471      101.41213
H         16.93662       49.61812       97.51604
H         17.52593       52.41765       98.47790
H         19.55360       51.36871       99.50515
H         19.03777       49.76175       98.87694
H         16.89707       49.93041      100.22490
H         17.49251       51.48228      100.92176
N         19.15144       50.51515       96.17554
C         19.84836       50.58123       94.90954
H         20.84469       50.10543       95.01102
H         19.26507       50.01677       94.14950
H         19.97791       51.62201       94.55079
H         18.99474       49.57702       96.55538
Ca        20.05138       48.58297      105.17344
O         19.46098       46.32513      102.32449
H         19.74859       45.38126      102.39995
H         18.53703       46.32952      102.67866
O         23.23974       48.81594      104.50035
H         23.89809       48.64358      103.78384
H         23.79613       49.13001      105.25430
O         22.40265       49.94950      102.08964
H         23.24465       50.45700      101.98156
H         21.69112       50.58862      101.84783

Ca 1.0



