%chk=holoCaM.loop3.water2.frame488.chk
%nprocshared=20
%mem=10GB
%nosave
#b3lyp/svp scf=(tight,noincore,xqc) Test 
#IOP(5/87=12) Density=Current Pop=(MK,readradii) iop(6/33=2) iop(6/42=6)

holoCaM.loop3.water2.frame488 

   0  1 
C         17.18080       53.57744       31.60752
C         18.01566       52.72301       30.70518
O         18.38317       53.17248       29.62816
H         16.20560       53.07896       31.78584
H         17.70431       53.72133       32.57584
H         16.99739       54.57212       31.14752
N         18.36978       51.46583       31.09303
C         19.19023       50.60043       30.25855
C         18.43240       50.23873       28.99816
O         17.38755       49.60639       29.07194
C         19.61596       49.35437       31.03488
C         20.66008       48.54209       30.32919
O         21.09796       48.82788       29.08128
O         21.20779       47.65532       30.95697
H         18.07119       51.13691       32.02473
H         20.12327       51.16304       30.02059
H         18.74244       48.72097       31.30133
H         20.08811       49.70786       31.97911
N         18.88157       50.69820       27.80458
C         18.12922       50.59595       26.56421
C         18.13579       49.18690       25.97400
O         17.30157       48.90810       25.12587
C         18.72418       51.63141       25.58787
C         17.85110       51.99085       24.38685
C         18.52399       53.14112       23.62152
C         17.63878       53.68172       22.49824
N         18.30654       54.78587       21.80836
H         19.73069       51.27514       27.81642
H         17.08568       50.90519       26.79895
H         19.73750       51.30370       25.26320
H         18.83992       52.57931       26.16324
H         16.86281       52.33525       24.76400
H         17.70173       51.11561       23.72039
H         19.49401       52.78886       23.20637
H         18.72728       53.98128       24.32384
H         16.68226       54.04936       22.93350
H         17.41155       52.87073       21.77289
H         19.19173       54.44811       21.36518
H         17.67412       55.16041       21.06553
H         18.52545       55.55505       22.48365
N         19.10340       48.28080       26.31055
C         19.23225       46.95276       25.70472
C         19.33450       45.82361       26.73436
O         19.43264       44.67457       26.32220
C         20.45619       46.96064       24.76877
C         21.72673       47.33991       25.47805
O         22.31463       48.36075       25.16104
O         22.21398       46.57152       26.46999
H         19.84342       48.57703       26.95798
H         18.34665       46.72806       25.07024
H         20.26162       47.70463       23.96421
H         20.58357       45.96914       24.28298
N         19.30488       46.05517       28.07646
C         19.35689       45.00440       29.07907
C         20.67183       44.25012       29.12730
O         20.64650       43.03029       29.04852
H         19.18762       47.01469       28.42647
H         18.50998       44.29920       28.92246
H         19.22035       45.46893       30.07935
N         21.85165       44.90713       29.33353
C         23.11901       44.22906       29.61337
C         23.67899       44.63499       30.98661
O         24.82712       44.31677       31.26729
C         24.15890       44.44929       28.48613
C         24.72685       45.83811       28.35146
N         25.76342       46.05805       27.51181
O         24.28668       46.75995       29.01375
H         21.84241       45.93473       29.34287
H         22.97177       43.12690       29.63839
H         23.73439       44.12688       27.51046
H         25.01967       43.78080       28.70913
H         26.16320       45.28858       26.95498
H         26.18755       46.99368       27.44044
N         22.91342       45.28340       31.91767
C         23.39591       45.63723       33.24825
C         24.24589       46.90015       33.31104
O         24.72163       47.20926       34.39351
H         21.91396       45.43468       31.72846
H         23.94515       44.77145       33.67813
H         22.52012       45.82747       33.90537
N         24.45475       47.69719       32.22554
C         25.25248       48.92627       32.24115
C         24.38565       50.14757       31.88972
O         23.20643       49.88116       31.20610
C         26.46980       48.73564       31.31098
C         27.44957       47.80281       31.98252
C         27.74074       46.53156       31.46364
C         28.07356       48.21711       33.17434
C         28.62760       45.68464       32.14318
C         28.95407       47.37438       33.84701
C         29.23158       46.10105       33.33753
O         30.07292       45.27315       33.98871
H         24.03107       47.42822       31.32960
H         25.62334       49.16600       33.25769
H         27.00482       49.69323       31.13533
H         26.12678       48.35204       30.32525
H         27.27342       46.18994       30.54848
H         27.87332       49.19765       33.58906
H         28.84087       44.70050       31.74663
H         29.41419       47.71375       34.76681
H         30.49615       45.52644       34.82237
N         25.10287       51.39187       31.54910
C         24.37293       52.48062       30.85814
C         25.43399       53.45743       30.34719
O         26.16970       53.99651       31.16435
C         23.37672       53.29796       31.76418
C         22.39997       52.43119       32.59430
C         22.58660       54.28281       30.86983
C         21.48880       53.24963       33.51563
H         25.58502       51.74829       32.40621
H         23.81251       52.04346       30.00217
H         23.97587       53.88173       32.49839
H         22.99383       51.77828       33.26467
H         21.76598       51.80780       31.93047
H         23.26692       54.93018       30.28905
H         21.93988       53.72373       30.15873
H         21.95523       54.97249       31.46187
H         20.77279       53.86879       32.93879
H         20.89090       52.56307       34.14971
H         22.09615       53.90497       34.17672
N         25.57367       53.74598       29.02292
C         26.56873       54.70118       28.53073
C         26.03744       56.12402       28.59668
O         24.89374       56.31588       28.96948
C         26.98485       54.33523       27.09429
O         25.88696       54.41564       26.22859
H         24.93895       53.29550       28.35069
H         27.48645       54.63395       29.15609
H         27.38473       53.29710       27.09331
H         27.78395       55.02754       26.74788
H         26.23269       54.21119       25.32134
N         26.81431       57.18265       28.23646
C         26.31030       58.55329       28.17334
C         25.21032       58.66047       27.12939
O         24.15693       59.20539       27.42454
C         27.44358       59.52497       27.82909
H         27.79514       57.00363       27.97033
H         25.91880       58.86391       29.16901
H         28.22841       59.47555       28.61443
H         27.90001       59.28072       26.84708
H         27.05484       60.56636       27.79821
N         25.38619       58.10900       25.89306
C         24.38470       58.13664       24.82826
C         23.04408       57.60535       25.30318
O         22.04696       58.29834       25.15367
C         24.87495       57.30612       23.63331
H         26.27424       57.61544       25.71226
H         24.24993       59.18511       24.48152
H         25.83774       57.71152       23.25547
H         25.03217       56.24543       23.92716
H         24.13240       57.34010       22.80800
N         22.95633       56.39534       25.91938
C         21.70997       55.83406       26.43838
C         21.06016       56.79465       27.42109
O         19.93277       57.20816       27.18818
C         21.99201       54.48208       27.13033
C         22.39910       53.39049       26.12859
C         22.85419       52.15380       26.84518
O         23.95775       51.68459       26.61974
O         22.06067       51.56564       27.75311
H         23.83131       55.86977       26.05360
H         20.99682       55.66469       25.59956
H         21.08105       54.12975       27.66461
H         22.79937       54.62959       27.87932
H         23.22423       53.73478       25.47100
H         21.52300       53.14975       25.48942
N         21.71996       57.20500       28.53512
C         21.15180       58.13344       29.48507
H         20.22601       57.70780       29.92498
H         21.88046       58.32513       30.30217
H         20.92316       59.09692       28.98228
H         22.66320       56.85484       28.71307
Ca        23.27577       49.37334       29.02120
O         26.14596       50.09589       28.27644
H         27.11606       50.28682       28.24246
H         25.73676       50.94450       28.57651
O         25.05354       48.72949       25.79035
H         24.89199       47.80466       25.47507
H         26.03923       48.81365       25.81301

Ca 1.0



