%chk=holoCaM.loop2.water1.frame248.chk
%nprocshared=20
%mem=10GB
%nosave
#b3lyp/svp scf=(tight,noincore,xqc) Test 
#IOP(5/87=12) Density=Current Pop=(MK,readradii) iop(6/33=2) iop(6/42=6)

holoCaM.loop2.water1.frame248 

   -2  1 
C         73.95103       87.92389       56.03071
C         74.20768       87.94697       54.55328
O         73.29695       87.69880       53.77622
H         72.89437       87.66153       56.24716
H         74.61280       87.16993       56.50802
H         74.17147       88.92248       56.46360
N         75.45422       88.23949       54.09622
C         75.80703       88.27520       52.68160
C         75.59240       86.89863       52.06068
O         76.15442       85.93664       52.56606
C         77.27721       88.71700       52.54685
C         77.73111       88.95455       51.13964
O         79.02188       89.25676       50.93001
O         76.95877       88.90046       50.19541
H         76.18309       88.45090       54.79709
H         75.17592       89.03764       52.18219
H         77.93010       87.94636       53.00985
H         77.42805       89.67435       53.09346
N         74.77444       86.73271       50.97742
C         74.42698       85.42855       50.41725
C         74.92797       85.20461       48.99623
O         74.86257       84.06445       48.55693
C         72.91029       85.24676       50.46952
H         74.35163       87.56369       50.55896
H         74.89437       84.63034       51.03378
H         72.62462       84.23935       50.09957
H         72.55141       85.35653       51.51449
H         72.41282       86.01588       49.83871
N         75.48229       86.19413       48.23600
C         76.17840       85.92283       46.97490
C         77.66950       86.18373       47.12503
O         78.40233       85.97096       46.16929
C         75.54196       86.65327       45.77290
C         75.47696       88.14674       45.81902
O         75.93820       88.86134       46.85437
O         74.91060       88.73272       44.90968
H         75.49153       87.15741       48.59786
H         76.10363       84.84478       46.71726
H         74.49388       86.29407       45.67984
H         76.08223       86.36735       44.84458
N         78.20108       86.57682       48.32020
C         79.61706       86.72057       48.57016
C         80.25715       87.74828       47.68174
O         81.23120       87.41111       47.02347
H         77.59610       86.73679       49.13379
H         80.11490       85.73434       48.44264
H         79.76092       87.03207       49.62725
N         79.78070       89.02732       47.62473
C         80.43603       90.07487       46.83892
C         80.96133       91.20984       47.71652
O         81.83273       91.93708       47.26314
C         79.52925       90.56618       45.69569
C         78.38535       91.43789       46.15361
N         78.21170       92.67180       45.62486
O         77.60465       91.03027       46.99660
H         78.92911       89.24723       48.16008
H         81.32951       89.63075       46.34934
H         79.12689       89.67679       45.16213
H         80.14693       91.13752       44.97015
H         78.84802       93.03246       44.89926
H         77.42627       93.26511       45.92648
N         80.50360       91.39962       48.98964
C         81.07471       92.33572       49.94213
C         80.09389       93.37625       50.43973
O         80.45776       94.09111       51.36391
H         79.73055       90.83101       49.33965
H         81.96711       92.85408       49.53398
H         81.40482       91.73570       50.81821
N         78.86312       93.56044       49.87772
C         77.91793       94.58128       50.33511
C         76.58000       93.94025       50.71079
O         76.45442       92.72549       50.60538
C         77.79644       95.68842       49.25477
C         79.14823       96.38389       49.02900
O         77.35490       95.14252       48.04291
H         78.58981       92.99012       49.06240
H         78.28867       95.07926       51.25824
H         77.07173       96.45419       49.61158
H         77.07149       95.90225       47.46921
H         79.03664       97.20013       48.28430
H         79.52114       96.82495       49.97761
H         79.90384       95.66670       48.64269
N         75.54166       94.69373       51.18800
C         74.26046       94.13032       51.62124
C         73.14179       94.61818       50.71562
O         72.86009       95.80923       50.69005
C         73.97443       94.50084       53.11392
C         75.02533       93.83517       54.03772
C         72.54439       94.09877       53.53670
C         74.86039       94.19006       55.51920
H         75.66196       95.71572       51.26140
H         74.28397       93.02301       51.55260
H         74.04570       95.60686       53.21975
H         76.03938       94.16511       53.72781
H         74.97094       92.72898       53.93140
H         71.79405       94.61792       52.91356
H         72.40043       93.00337       53.45858
H         72.31438       94.42480       54.56894
H         73.90394       93.80595       55.92888
H         75.67418       93.71596       56.10554
H         74.90768       95.29024       55.66109
N         72.43671       93.72536       49.96203
C         71.27440       94.09568       49.15668
C         70.05332       94.27542       50.04644
O         70.12982       94.01437       51.23751
C         70.95958       92.98913       48.13132
C         72.16003       92.65625       47.31321
O         72.68723       93.48414       46.58866
O         72.67393       91.42594       47.44239
H         72.73970       92.74077       49.95948
H         71.50625       95.02816       48.59608
H         70.13017       93.28363       47.45483
H         70.66517       92.06810       48.68377
N         68.86906       94.69000       49.51968
C         67.65194       94.82199       50.31238
C         67.19560       93.48207       50.89549
O         66.91690       93.47129       52.08488
C         66.53809       95.51283       49.50500
C         65.28228       95.63465       50.32810
C         65.08373       96.72965       51.18483
C         64.31402       94.61873       50.26919
C         63.92431       96.80809       51.96356
C         63.16092       94.69859       51.05117
C         62.96423       95.79343       51.89644
H         68.83656       94.93128       48.51761
H         67.85929       95.51137       51.16428
H         66.30787       94.99101       48.55938
H         66.89076       96.52538       49.20820
H         65.82528       97.51638       51.25247
H         64.46076       93.76004       49.62496
H         63.77157       97.65269       52.62267
H         62.42312       93.90859       51.00318
H         62.06962       95.85257       52.50186
N         67.06033       92.32321       50.17199
C         66.68371       91.04237       50.76311
C         67.56757       90.66663       51.94410
O         67.05503       90.32110       52.99899
C         66.88528       90.03608       49.61573
C         66.58050       90.88282       48.40444
C         67.30096       92.18032       48.75110
H         65.61050       91.08342       51.05613
H         67.95983       89.75717       49.52309
H         66.29469       89.09972       49.71150
H         66.87293       90.44012       47.42818
H         65.48441       91.08190       48.39686
H         68.38951       92.08911       48.58501
H         66.87368       92.98249       48.12788
N         68.92388       90.72773       51.81598
C         69.87383       90.34171       52.86115
C         69.79773       91.24846       54.08607
O         70.32598       90.87422       55.12368
C         71.31390       90.40307       52.30323
C         71.52846       89.47145       51.09320
C         72.83654       89.72358       50.39986
O         73.72660       90.61134       50.88172
O         73.07859       89.14361       49.35409
H         69.28882       91.06058       50.91271
H         69.64101       89.29799       53.17049
H         72.05354       90.14666       53.09429
H         71.49280       91.45175       51.97931
H         70.75331       89.64569       50.32455
H         71.45877       88.40888       51.41258
N         69.20669       92.47346       54.02343
C         69.09774       93.39320       55.13562
H         68.02517       93.62084       55.31481
H         69.53524       92.98526       56.06912
H         69.61896       94.33949       54.87826
H         68.83540       92.79661       53.13069
Ca        74.73404       90.73693       46.95119
O         75.12860       93.63484       47.81961
H         75.87731       93.00270       47.95505
H         75.24398       93.95738       46.89012

Ca 1.0



