%chk=holoCaM-CaMKII.loop4.water1.frame430.chk
%nprocshared=20
%mem=10GB
%nosave
#b3lyp/svp scf=(tight,noincore,xqc) Test 
#IOP(5/87=12) Density=Current Pop=(MK,readradii) iop(6/33=2) iop(6/42=6)

holoCaM-CaMKII.loop4.water1.frame430 

   -3  1 
C         72.97098       81.16607       31.61966
C         71.49818       81.26930       31.89937
O         70.70662       81.03187       31.00158
H         73.22435       80.13265       31.30652
H         73.24420       81.87411       30.80902
H         73.57502       81.42052       32.51715
N         71.06023       81.63018       33.13527
C         69.65301       81.80197       33.49165
C         69.01695       82.88497       32.63019
O         69.51658       83.99950       32.57680
C         69.56520       82.08449       35.00158
C         68.22519       82.49167       35.55252
O         68.17875       83.51716       36.21274
O         67.07396       81.80007       35.39781
H         71.77484       81.80168       33.86055
H         69.11325       80.84951       33.33121
H         70.28037       82.89957       35.25572
H         69.90074       81.16876       35.53566
N         67.88381       82.59287       31.93121
C         67.18812       83.50037       31.02231
C         65.92802       84.01170       31.70931
O         65.71528       85.21467       31.75825
C         66.84788       82.75331       29.68611
C         68.13549       82.19400       29.02372
C         66.08171       83.67851       28.72053
C         67.89994       81.44376       27.70664
H         67.47081       81.65985       32.06635
H         67.82470       84.38032       30.77704
H         66.18346       81.88989       29.91754
H         68.59833       81.47262       29.72575
H         68.85987       83.01514       28.83455
H         65.76793       83.13004       27.80888
H         65.14578       84.04826       29.18717
H         66.70971       84.54528       28.42691
H         67.15153       80.63616       27.83421
H         67.54918       82.12733       26.90830
H         68.85623       80.99440       27.36267
N         65.06883       83.13453       32.29245
C         63.82291       83.49115       32.97110
C         64.04384       84.52701       34.06861
O         63.37903       85.55283       34.07575
C         63.22622       82.22973       33.64947
C         63.09277       81.04338       32.73967
O         62.24535       81.02350       31.86178
O         63.95943       80.01117       32.87552
H         65.33103       82.14263       32.25577
H         63.10109       83.88648       32.22236
H         62.25167       82.45150       34.13655
H         63.91716       81.91372       34.44981
N         64.94537       84.27558       35.05592
C         65.14968       85.08258       36.24708
C         64.89717       84.27252       37.51804
O         65.12573       84.80041       38.59665
H         65.51309       83.43057       34.96943
H         64.49270       85.97831       36.25408
H         66.20509       85.42882       36.25086
N         64.41145       82.99284       37.47332
C         64.12089       82.16722       38.64778
C         65.36138       81.69900       39.41280
O         65.19954       81.01407       40.41352
C         63.26287       80.94937       38.21946
C         63.93921       79.98831       37.27401
O         63.30340       79.05104       36.82280
O         65.22659       80.14354       36.91405
H         64.16497       82.59706       36.56043
H         63.48672       82.76493       39.33856
H         62.35158       81.34004       37.71563
H         62.93586       80.38304       39.11772
N         66.62324       82.02113       39.01573
C         67.82020       81.59202       39.71473
C         68.07956       80.11367       39.56264
O         68.29537       79.44170       40.56012
H         66.76498       82.61762       38.19293
H         67.78174       81.89886       40.78305
H         68.69273       82.10188       39.25107
N         68.15707       79.57078       38.31447
C         68.63991       78.21827       38.02425
C         68.79165       77.98578       36.52895
O         68.29604       78.76132       35.72138
C         67.83662       77.08213       38.72558
C         66.30873       77.03461       38.52371
C         65.79964       76.56642       37.18152
N         64.46787       76.40657       37.00434
O         66.56265       76.29264       36.26939
H         67.95343       80.20476       37.52859
H         69.67732       78.16902       38.42463
H         67.98922       77.19941       39.81607
H         68.27162       76.08958       38.47597
H         65.86880       78.02215       38.77669
H         65.92112       76.29393       39.25775
H         63.80868       76.60737       37.77121
H         64.09109       76.06834       36.10816
N         69.53177       76.92957       36.09671
C         69.78805       76.63544       34.69539
C         69.25572       75.24891       34.40428
O         69.66808       74.30488       35.06541
C         71.31041       76.76426       34.40100
C         71.64855       76.40476       32.94390
C         71.78876       78.20254       34.67372
H         69.96674       76.31149       36.79993
H         69.27288       77.36001       34.03574
H         71.87163       76.07136       35.06599
H         71.35871       75.35897       32.71458
H         71.13050       77.08847       32.24119
H         72.74271       76.49380       32.77095
H         71.25147       78.92169       34.01767
H         71.61036       78.48897       35.73082
H         72.87833       78.29411       34.47731
N         68.35775       75.05182       33.39665
C         67.85859       73.73232       33.02258
C         68.56029       73.27899       31.75879
O         69.39880       74.00946       31.26482
C         66.31040       73.69537       32.91511
C         65.70458       74.36986       31.69963
N         65.70796       75.71222       31.54042
O         65.15877       73.67549       30.85458
H         68.10521       75.85780       32.81197
H         68.12996       72.99616       33.81026
H         65.84706       74.09372       33.84346
H         66.02488       72.62239       32.85832
H         66.10516       76.33868       32.24976
H         65.26624       76.13300       30.70922
N         68.30136       72.07323       31.18883
C         69.01338       71.58689       30.00782
C         68.90434       72.55195       28.83523
O         69.92702       72.88214       28.25094
C         68.48597       70.19369       29.61523
C         69.19278       69.64172       28.39870
C         70.58509       69.44108       28.40228
C         68.45916       69.33050       27.24262
C         71.22972       68.94603       27.26523
C         69.10507       68.83068       26.10936
C         70.49395       68.63871       26.11629
O         71.12966       68.16080       25.02795
H         67.58306       71.47182       31.61959
H         70.09039       71.47998       30.26640
H         67.39202       70.26463       29.42586
H         68.63862       69.49390       30.46554
H         71.17493       69.67211       29.28010
H         67.38643       69.47609       27.21633
H         72.30290       68.80212       27.27763
H         68.52448       68.59555       25.22662
H         70.65616       67.93507       24.21459
N         67.70069       73.06567       28.46227
C         67.51697       73.99478       27.34655
C         68.48325       75.16654       27.43691
O         69.21198       75.42046       26.48808
C         66.05356       74.49891       27.34918
C         65.72518       75.42016       26.16661
C         64.29957       75.88736       26.24723
O         63.88686       76.61799       27.30157
O         63.51073       75.61522       25.35660
H         66.87783       72.80002       29.02408
H         67.70671       73.45323       26.39328
H         65.85554       75.03952       28.30177
H         65.37232       73.62052       27.30552
H         65.88988       74.86529       25.21711
H         66.38242       76.31538       26.17408
N         68.54068       75.91208       28.56816
C         69.41269       77.07081       28.74630
C         70.87691       76.69563       28.58553
O         71.55208       77.30211       27.76515
C         69.12321       77.71013       30.11883
C         67.70345       78.30539       30.10475
C         67.26259       78.88111       31.40520
O         66.16449       79.40258       31.47052
O         68.03505       78.81461       32.50172
H         67.92527       75.62761       29.34567
H         69.18005       77.83824       27.97277
H         69.84412       78.53106       30.32400
H         69.22066       76.94152       30.91516
H         66.95202       77.54435       29.82177
H         67.67469       79.10696       29.34745
N         71.43072       75.68598       29.30422
C         72.80777       75.27576       29.14497
H         73.48653       76.10344       29.43701
H         73.01505       74.39575       29.79157
H         72.99858       74.98654       28.08917
H         70.85169       75.16962       29.96585
Ca        65.87478       80.33765       34.12433
O         63.90817       77.26737       33.73073
H         64.00704       76.28357       33.68958
H         63.00034       77.43850       33.37510

Ca 1.0



