%chk=holoCaM-CaMKII.loop1.water2.frame319.chk
%nprocshared=20
%mem=10GB
%nosave
#b3lyp/svp scf=(tight,noincore,xqc) Test 
#IOP(5/87=12) Density=Current Pop=(MK,readradii) iop(6/33=2) iop(6/42=6)

holoCaM-CaMKII.loop1.water2.frame319 

   0  1 
C         45.25768       32.37465       56.69048
C         44.33161       32.39416       55.50531
O         44.00230       33.46556       55.01983
H         46.22090       32.85702       56.42387
H         44.79364       32.91732       57.53955
H         45.47352       31.33491       57.02094
N         43.87730       31.22500       54.98292
C         42.99621       31.12622       53.82319
C         41.63868       31.77216       54.10651
O         41.01757       31.42192       55.10024
C         42.80809       29.62998       53.49482
C         42.06519       29.34935       52.22800
O         41.74093       30.24149       51.46423
O         41.77315       28.07522       51.92594
H         44.19875       30.34978       55.42706
H         43.49470       31.60867       52.95127
H         42.27025       29.14409       54.33710
H         43.80271       29.14380       53.38796
N         41.10504       32.69414       53.24954
C         39.80908       33.35101       53.45345
C         38.75592       32.96903       52.41703
O         37.60926       33.34060       52.62982
C         40.00138       34.88282       53.45907
C         40.58308       35.36935       54.78766
C         40.93213       36.86330       54.73472
C         41.15074       37.46955       56.13179
N         42.14923       36.74781       56.92101
H         41.64153       32.93237       52.40595
H         39.36189       33.03230       54.42095
H         39.02394       35.40249       53.34370
H         40.63816       35.17556       52.59663
H         41.49737       34.79757       55.05313
H         39.80584       35.19056       55.56358
H         40.10099       37.43685       54.26839
H         41.83804       36.99350       54.10113
H         40.18371       37.46473       56.68290
H         41.46579       38.52955       56.00852
H         42.29052       37.25354       57.82517
H         41.80650       35.78595       57.14644
H         43.05721       36.69656       56.40664
N         39.02913       32.23642       51.29982
C         37.99408       31.79494       50.36022
C         37.96658       30.27311       50.21796
O         37.19938       29.77343       49.40697
C         38.13383       32.55988       49.02895
C         39.42440       32.37785       48.28602
O         39.67310       33.12203       47.35177
O         40.30961       31.41906       48.61381
H         40.00271       31.98433       51.09345
H         36.98317       32.07590       50.73031
H         38.05407       33.63970       49.28964
H         37.28774       32.32426       48.34706
N         38.70762       29.46885       51.03907
C         38.62164       28.01663       51.05667
C         39.23850       27.29868       49.87052
O         39.18976       26.07647       49.87649
H         39.28267       29.89326       51.77716
H         37.55584       27.72006       51.16463
H         39.15668       27.64899       51.95865
N         39.82573       27.94507       48.82162
C         40.36009       27.21999       47.66617
C         41.56177       26.32693       47.98454
O         41.86002       25.46070       47.17452
C         40.66726       28.17358       46.49070
C         41.67587       29.25287       46.78071
O         41.95536       30.05467       45.90620
O         42.24530       29.37811       47.99195
H         39.83345       28.97144       48.81286
H         39.54751       26.54697       47.31141
H         39.72105       28.67656       46.19675
H         41.02402       27.57738       45.62316
N         42.30567       26.48209       49.11610
C         43.40877       25.60454       49.49142
C         44.75720       26.29500       49.47924
O         45.72439       25.66500       49.88485
H         42.08919       27.26070       49.74532
H         43.48344       24.72401       48.81852
H         43.20529       25.22560       50.51630
N         44.91709       27.55984       48.99677
C         46.19891       28.25251       48.93512
C         46.15039       29.55216       49.72200
O         45.07979       29.98226       50.13347
C         46.57325       28.52577       47.45022
C         46.92139       27.22403       46.72466
O         45.51279       29.14093       46.76104
H         44.10206       28.05678       48.62582
H         46.99948       27.63747       49.40196
H         47.47793       29.17096       47.38699
H         45.28342       29.97362       47.24573
H         47.18525       27.44118       45.66695
H         47.79751       26.74163       47.20816
H         46.06495       26.51735       46.73561
N         47.31282       30.21179       49.99519
C         47.38934       31.47358       50.72380
C         48.14969       32.45802       49.84801
O         49.31071       32.20810       49.54922
C         48.09963       31.26359       52.09622
C         47.34932       30.19912       52.94390
C         48.19823       32.59961       52.86248
C         48.08971       29.80170       54.22411
H         48.20046       29.78284       49.68740
H         46.36727       31.86434       50.92927
H         49.12837       30.88734       51.89866
H         47.24140       29.26544       52.35265
H         46.33001       30.56285       53.20109
H         48.75819       32.48390       53.81109
H         48.74849       33.35598       52.26737
H         47.18462       32.99406       53.09117
H         47.51975       29.00527       54.74773
H         49.09668       29.40394       53.97330
H         48.19431       30.65298       54.92501
N         47.55030       33.58444       49.37296
C         48.21671       34.50318       48.44903
C         49.01318       35.55273       49.21196
O         49.02836       35.52625       50.43031
C         47.18109       35.17985       47.51121
C         46.32767       34.16017       46.75918
O         46.34333       36.02904       48.24435
H         46.56353       33.75335       49.61607
H         48.90666       33.92998       47.78957
H         47.73997       35.77317       46.75245
H         45.98710       36.70122       47.60684
H         45.65052       34.69711       46.06250
H         46.96716       33.46938       46.17249
H         45.70415       33.57272       47.46542
N         49.67613       36.54021       48.54840
C         50.33492       37.66215       49.21840
C         49.30700       38.44823       50.02754
O         49.51435       38.66633       51.21262
C         51.02147       38.57142       48.16598
C         51.72408       39.77333       48.80363
O         51.98801       37.82721       47.46561
H         49.67174       36.51774       47.51877
H         51.12997       37.27845       49.89751
H         50.25686       38.97691       47.45994
H         51.57570       37.52193       46.61591
H         52.50136       39.43238       49.52020
H         52.21111       40.38240       48.01253
H         50.99769       40.42215       49.33635
N         48.14696       38.85487       49.43846
C         47.06454       39.57181       50.11536
C         46.64293       38.86968       51.39142
O         46.59494       39.50428       52.43616
C         45.86190       39.67976       49.13574
C         44.59146       40.32877       49.71878
C         43.50422       40.56012       48.64350
C         42.96269       39.29930       47.93363
N         42.21333       38.42325       48.83461
H         48.00901       38.59481       48.44913
H         47.40173       40.59873       50.37991
H         45.59160       38.66246       48.79183
H         46.19745       40.27051       48.25547
H         44.86217       41.32147       50.13730
H         44.18463       39.70852       50.54612
H         43.93552       41.22740       47.86647
H         42.64782       41.09702       49.10637
H         43.78401       38.73292       47.44594
H         42.27632       39.63243       47.12325
H         41.39951       38.94007       49.24067
H         41.84881       37.60816       48.28910
H         42.82729       38.06542       49.59795
N         46.28632       37.56268       51.36214
C         45.72177       36.85635       52.50490
C         46.71975       36.79286       53.64663
O         46.42105       37.30603       54.71603
C         45.18081       35.47246       52.06578
C         44.11761       35.68282       50.96218
C         43.36132       34.46667       50.55574
O         43.96539       33.36593       50.07561
O         42.14261       34.49463       50.60171
H         46.38705       37.07372       50.46611
H         44.83362       37.42609       52.86307
H         44.70777       34.98380       52.94342
H         45.99882       34.81774       51.69481
H         44.57327       36.07915       50.03934
H         43.37752       36.43070       51.32199
N         47.94450       36.22833       53.47399
C         48.98064       36.22050       54.48754
H         49.86512       36.77524       54.10584
H         48.65499       36.70278       55.43293
H         49.28165       35.17535       54.70468
H         48.17029       35.80988       52.56844
Ca        42.38032       31.98914       49.28354
O         44.12413       31.98873       46.00770
H         44.25058       31.21603       45.40290
H         44.24344       32.77480       45.41994
O         42.68305       34.81519       47.47255
H         42.02637       34.10797       47.25770
H         43.29468       34.82184       46.69576

Ca 1.0



