%chk=holoCaM.loop4.water3.frame431.chk
%nprocshared=20
%mem=10GB
%nosave
#b3lyp/svp scf=(tight,noincore,xqc) Test 
#IOP(5/87=12) Density=Current Pop=(MK,readradii) iop(6/33=2) iop(6/42=6)

holoCaM.loop4.water3.frame431 

   -3  1 
C         17.62292      -18.15872       40.26258
C         17.39800      -19.64047       40.29041
O         16.32626      -20.07789       39.89794
H         18.48703      -17.93254       39.60239
H         16.72931      -17.63508       39.85690
H         17.82766      -17.78272       41.28495
N         18.37881      -20.48092       40.73566
C         18.25441      -21.93679       40.69897
C         19.45768      -22.60985       41.36107
O         20.58415      -22.36485       40.95256
C         18.13674      -22.41350       39.23340
C         17.96691      -23.89745       39.14152
O         18.78017      -24.56787       38.52661
O         16.90953      -24.49138       39.72627
H         19.24982      -20.06108       41.09597
H         17.33129      -22.22814       41.24801
H         19.04205      -22.09969       38.66899
H         17.25449      -21.96298       38.73850
N         19.26727      -23.50830       42.37144
C         20.33530      -24.23048       43.06692
C         20.25033      -25.74680       42.81335
O         21.18788      -26.44040       43.18199
C         20.23177      -23.88706       44.60094
C         20.52531      -22.37746       44.81988
C         21.14002      -24.75618       45.49879
C         20.28992      -21.88954       46.25430
H         18.30229      -23.69530       42.66755
H         21.32794      -23.91302       42.67870
H         19.18600      -24.09435       44.92413
H         19.85542      -21.77510       44.17078
H         21.57660      -22.15801       44.53160
H         22.20777      -24.63554       45.22335
H         21.00686      -24.51085       46.57015
H         20.85197      -25.82472       45.43987
H         20.97660      -22.37316       46.97722
H         20.48324      -20.79751       46.30695
H         19.23839      -22.07774       46.55864
N         19.15793      -26.34217       42.24782
C         18.96778      -27.80003       42.22276
C         18.53002      -28.37254       40.87708
O         18.45116      -29.58973       40.77617
C         17.95295      -28.17171       43.33288
C         16.61858      -27.46981       43.21819
O         16.32080      -26.73200       42.12923
O         15.83293      -27.51748       44.14991
H         18.37862      -25.74365       41.96416
H         19.92213      -28.31055       42.47787
H         18.40779      -27.84445       44.29402
H         17.79948      -29.27092       43.39129
N         18.20357      -27.58782       39.81133
C         17.76096      -28.11526       38.52475
C         16.43158      -28.86829       38.55078
O         16.04192      -29.36232       37.50220
H         18.29240      -26.57257       39.89667
H         18.55147      -28.78968       38.12945
H         17.64965      -27.27007       37.81084
N         15.69099      -29.02516       39.68793
C         14.47436      -29.83643       39.76551
C         13.25844      -29.26511       39.02776
O         12.22290      -29.91645       39.05755
C         14.11439      -30.12335       41.24769
C         13.78306      -28.91944       42.08848
O         13.85154      -27.79087       41.63516
O         13.42715      -29.09233       43.37486
H         16.04453      -28.62530       40.56100
H         14.70207      -30.83040       39.32030
H         14.97204      -30.64273       41.72777
H         13.24412      -30.81289       41.27728
N         13.28524      -28.08842       38.33787
C         12.12072      -27.57346       37.62417
C         11.03782      -26.99262       38.52155
O         10.04203      -26.52918       37.98083
H         14.16219      -27.55817       38.26061
H         11.70589      -28.36986       36.96864
H         12.45079      -26.74011       36.96682
N         11.17657      -26.91274       39.87558
C         10.24572      -26.21915       40.75910
C         10.93998      -25.01687       41.37904
O         12.11693      -24.79703       41.11255
C          9.72077      -27.16496       41.86043
C          8.87311      -28.31352       41.29233
C          8.22823      -29.15337       42.37333
N          7.40122      -30.16791       42.03270
O          8.43088      -28.91588       43.55611
H         12.01886      -27.29568       40.30898
H          9.37570      -25.82441       40.18844
H          9.06533      -26.58461       42.54379
H         10.56988      -27.57098       42.45478
H          9.50205      -28.96434       40.64770
H          8.05705      -27.87919       40.67531
H          7.20834      -30.37871       41.04280
H          6.94333      -30.73702       42.76044
N         10.25549      -24.16516       42.19139
C         10.83013      -22.95173       42.75677
C         10.79109      -23.03117       44.27487
O          9.72291      -23.21988       44.84389
C         10.06658      -21.71337       42.21143
C         10.64026      -20.40312       42.77663
C         10.14367      -21.66700       40.67420
H          9.26004      -24.35572       42.39056
H         11.89045      -22.83428       42.43938
H          8.99498      -21.78126       42.50392
H         10.53587      -20.37334       43.87925
H         11.71490      -20.29672       42.51265
H         10.08545      -19.53221       42.36672
H         11.20080      -21.60007       40.33655
H          9.68622      -22.57373       40.22559
H          9.59018      -20.78637       40.28478
N         11.93439      -22.84473       44.99270
C         12.00169      -22.81543       46.45040
C         11.89789      -21.37463       46.92483
O         11.91012      -20.47301       46.10664
C         13.33535      -23.48432       46.88043
C         13.64775      -23.48616       48.35415
N         12.85646      -24.13570       49.23611
O         14.65149      -22.91387       48.75313
H         12.78926      -22.59750       44.47593
H         11.13497      -23.36504       46.87995
H         14.16576      -22.95925       46.35897
H         13.33555      -24.53828       46.54299
H         12.01284      -24.63438       48.92134
H         13.09622      -24.14173       50.23811
N         11.72427      -21.08630       48.24049
C         11.60401      -19.72796       48.76936
C         12.86312      -18.91169       48.53500
O         12.75352      -17.80037       48.03546
C         11.14744      -19.75240       50.25200
C         11.92645      -20.66485       51.17874
C         11.33179      -21.86765       51.60498
C         13.21760      -20.34908       51.63252
C         12.02017      -22.74653       52.44016
C         13.90799      -21.23317       52.47010
C         13.31138      -22.43800       52.87171
O         13.96492      -23.30472       53.67078
H         11.63284      -21.87782       48.88907
H         10.77815      -19.20122       48.23745
H         10.10215      -20.13117       50.21253
H         11.08526      -18.72549       50.67256
H         10.33575      -22.13760       51.27560
H         13.69265      -19.42152       51.34529
H         11.54906      -23.67284       52.74413
H         14.90584      -20.98147       52.80582
H         14.86254      -23.13593       53.98923
N         14.09506      -19.40691       48.83111
C         15.33145      -18.65338       48.63337
C         15.47397      -18.23256       47.17528
O         15.93816      -17.13532       46.90045
C         16.53562      -19.52264       49.08088
C         17.86864      -18.75985       49.16643
C         17.82380      -17.68714       50.22112
O         17.56999      -18.01196       51.50437
O         18.02249      -16.52067       49.92307
H         14.15553      -20.36829       49.19548
H         15.29211      -17.75009       49.28005
H         16.64593      -20.38337       48.38436
H         16.33056      -19.93836       50.09286
H         18.12867      -18.32738       48.17684
H         18.67142      -19.47528       49.44876
N         15.07266      -19.08132       46.19129
C         15.18260      -18.81193       44.76029
C         14.27163      -17.66401       44.35298
O         14.76042      -16.67825       43.81894
C         14.87079      -20.10783       43.96625
C         15.88692      -21.20115       44.36390
C         15.67135      -22.55038       43.76225
O         16.41179      -23.45452       44.11038
O         14.69395      -22.82353       42.88047
H         14.67221      -19.98217       46.48887
H         16.23530      -18.53947       44.51999
H         14.94708      -19.91656       42.87303
H         13.83750      -20.44714       44.19119
H         15.86486      -21.37515       45.45582
H         16.91058      -20.85927       44.09839
N         12.93288      -17.71825       44.58838
C         12.02157      -16.65368       44.23108
H         10.98948      -16.92191       44.54788
H         12.31217      -15.71290       44.74420
H         12.02449      -16.50215       43.13168
H         12.54032      -18.54005       45.05051
Ca        14.97662      -24.92629       42.12517
O         13.01544      -25.77637       44.38173
H         13.98209      -25.61869       44.52819
H         12.97028      -26.28871       43.53844
O         14.13065      -24.96476       38.75532
H         14.76256      -25.07417       38.00095
H         13.37508      -24.45150       38.37385
O         14.06535      -22.31703       40.10881
H         14.00299      -21.74132       39.30655
H         15.03735      -22.42732       40.25869

Ca 1.0



