%chk=holoCaM-CaMKII.loop3.water2.frame51.chk
%nprocshared=20
%mem=10GB
%nosave
#b3lyp/svp scf=(tight,noincore,xqc) Test 
#IOP(5/87=12) Density=Current Pop=(MK,readradii) iop(6/33=2) iop(6/42=6)

holoCaM-CaMKII.loop3.water2.frame51 

   0  1 
C          8.25181       44.00049       89.60220
C          8.69083       42.64198       89.14351
O          8.03472       41.65814       89.45518
H          7.32509       43.93459       90.21047
H          9.05362       44.46638       90.21199
H          8.05110       44.64109       88.71655
N          9.79837       42.52257       88.36315
C         10.25467       41.24940       87.82161
C         10.71845       40.31815       88.93783
O         11.66667       40.64337       89.63912
C         11.39074       41.50506       86.82019
C         11.81521       40.28191       86.07177
O         12.71844       40.37553       85.26846
O         11.20832       39.09490       86.24488
H         10.30147       43.38694       88.10562
H          9.40507       40.80133       87.25687
H         12.26683       41.93322       87.35563
H         11.04790       42.24577       86.06426
N         10.05573       39.15292       89.17544
C         10.36413       38.26066       90.29033
C         11.64203       37.44298       90.08420
O         12.22574       37.03503       91.07839
C          9.13432       37.35967       90.55086
C          9.22934       36.48640       91.81051
C          7.87073       35.82901       92.10174
C          7.92315       34.95241       93.35930
N          6.59917       34.41428       93.67468
H          9.22369       38.95320       88.60221
H         10.48241       38.89058       91.20133
H          8.93471       36.71572       89.66582
H          8.26633       38.04498       90.68465
H          9.50115       37.12402       92.68002
H         10.01055       35.70834       91.67284
H          7.55339       35.20892       91.23467
H          7.11531       36.63116       92.25839
H          8.28035       35.55685       94.22249
H          8.63677       34.11461       93.19596
H          6.23804       33.84332       92.87641
H          6.66774       33.80783       94.52363
H          5.93435       35.19702       93.87569
N         12.08411       37.08642       88.84014
C         13.22579       36.19140       88.60375
C         14.31785       36.82251       87.72825
O         15.26779       36.12179       87.40580
C         12.70140       34.85404       88.02214
C         11.99586       35.05487       86.72431
O         10.66486       34.94572       86.67519
O         12.60302       35.44113       85.74807
H         11.54665       37.40206       88.02229
H         13.71639       35.91862       89.56317
H         11.97746       34.43451       88.75530
H         13.51737       34.11207       87.88925
N         14.29916       38.14003       87.35968
C         15.39534       38.77596       86.63023
C         15.47030       38.46242       85.14042
O         16.41164       38.92285       84.50975
H         13.54537       38.74929       87.70506
H         16.35519       38.50893       87.12491
H         15.28399       39.87881       86.70775
N         14.52074       37.72623       84.49580
C         14.55987       37.40477       83.06256
C         14.18096       38.58135       82.15200
O         14.03861       38.37131       80.95536
C         13.67544       36.16465       82.77475
C         12.18161       36.40061       82.80795
N         11.39626       35.92138       81.81521
O         11.66956       36.99439       83.74237
H         13.75997       37.34330       85.06069
H         15.58901       37.06120       82.81394
H         13.94139       35.38137       83.51566
H         13.94203       35.75142       81.77691
H         11.79788       35.38590       81.03159
H         10.37523       36.05341       81.84515
N         14.02412       39.84690       82.63547
C         13.65876       40.99236       81.82225
C         12.18324       41.08259       81.47640
O         11.84063       42.05008       80.80825
H         14.26109       40.04762       83.60713
H         14.29049       41.01866       80.90866
H         13.88326       41.91439       82.40383
N         11.24363       40.17840       81.89669
C          9.81786       40.32864       81.59288
C          8.95321       40.41288       82.84208
O          9.40379       40.10327       83.93881
C          9.31742       39.15089       80.73385
C          9.87881       39.13836       79.33607
C          9.59325       40.19702       78.45752
C         10.64599       38.05554       78.87728
C         10.06418       40.17176       77.14297
C         11.11652       38.03151       77.56092
C         10.82334       39.08953       76.68797
O         11.25716       39.07377       75.41175
H         11.53559       39.36304       82.45535
H          9.64060       41.27919       81.04559
H          8.21238       39.20261       80.62363
H          9.55497       38.20642       81.26614
H          8.99174       41.03567       78.78475
H         10.87115       37.22451       79.52960
H          9.82849       40.99037       76.47488
H         11.70033       37.18644       77.21845
H         11.77133       38.33706       75.05217
N          7.67477       40.87496       82.71809
C          6.70091       40.99820       83.79837
C          5.39376       40.36499       83.34015
O          4.87503       40.77663       82.30754
C          6.46123       42.50257       84.13811
C          7.77827       43.16143       84.62708
C          5.34914       42.65050       85.20416
C          7.66705       44.67302       84.84181
H          7.37667       41.20496       81.78462
H          7.06804       40.50102       84.72595
H          6.12698       43.02203       83.21164
H          8.56938       43.01216       83.86297
H          8.11483       42.68054       85.57232
H          4.39401       42.20872       84.85221
H          5.64257       42.14764       86.15063
H          5.12364       43.71425       85.41278
H          6.94739       44.92587       85.64533
H          8.65645       45.07470       85.14533
H          7.35725       45.17062       83.89806
N          4.76693       39.41463       84.08686
C          3.46511       38.84905       83.73938
C          2.40149       39.25417       84.75395
O          2.71633       39.92572       85.72851
C          3.58285       37.32066       83.62627
O          3.95627       36.77094       84.86014
H          5.21468       39.10559       84.96054
H          3.12444       39.23717       82.75424
H          4.35115       37.07908       82.85796
H          2.60945       36.88863       83.30679
H          4.02549       35.79152       84.71677
N          1.10015       38.89346       84.56290
C          0.00760       39.22908       85.47618
C          0.22260       38.62450       86.84657
O         -0.02289       39.29902       87.83538
C         -1.32843       38.73095       84.92105
H          0.87060       38.35454       83.71257
H         -0.07621       40.33588       85.57035
H         -1.32145       37.62660       84.80334
H         -2.15386       39.01519       85.60993
H         -1.52420       39.20140       83.93426
N          0.70372       37.35654       86.97572
C          1.01830       36.75057       88.26488
C          2.03085       37.60221       89.01375
O          1.78060       37.98180       90.14908
C          1.58251       35.33674       88.04949
H          0.89687       36.81897       86.11629
H          0.09031       36.65572       88.87067
H          0.83532       34.70689       87.52070
H          2.50950       35.36292       87.43591
H          1.81565       34.85875       89.02447
N          3.19945       37.94901       88.41094
C          4.25889       38.73654       89.04790
C          3.84836       40.16981       89.35235
O          4.58844       40.84199       90.05726
C          5.47939       38.76495       88.11058
C          6.04620       37.35195       87.94694
C          6.94223       37.22189       86.76267
O          6.73369       36.33337       85.95173
O          8.03482       37.98208       86.62435
H          3.34218       37.60974       87.44713
H          4.53776       38.24261       90.00628
H          6.28991       39.42972       88.48475
H          5.12964       39.17059       87.14166
H          5.24675       36.59471       87.81485
H          6.59412       37.08467       88.87475
N          2.71653       40.71951       88.83353
C          2.28459       42.07669       89.09006
H          1.26488       42.05582       89.52856
H          2.95854       42.61201       89.79012
H          2.25058       42.63569       88.13140
H          2.13603       40.16816       88.19927
Ca         9.62327       36.69808       85.75756
O          7.80808       37.27744       83.06983
H          6.97335       37.47056       83.56381
H          7.50535       37.05425       82.15415
O          9.20346       34.46855       83.76723
H          8.24837       34.59310       83.99588
H          9.56722       33.92491       84.50980

Ca 1.0



