%chk=holoCaM.loop4.water3.frame8.chk
%nprocshared=20
%mem=10GB
%nosave
#b3lyp/svp scf=(tight,noincore,xqc) Test 
#IOP(5/87=12) Density=Current Pop=(MK,readradii) iop(6/33=2) iop(6/42=6)

holoCaM.loop4.water3.frame8 

   -3  1 
C         70.44740       66.13560       52.49754
C         70.28066       66.54109       51.06242
O         69.83083       65.72220       50.27561
H         70.83349       66.97301       53.11545
H         69.45419       65.84105       52.90325
H         71.13932       65.27348       52.57546
N         70.55645       67.81739       50.66622
C         70.21506       68.32896       49.34653
C         71.34432       69.13689       48.71338
O         71.84657       70.05742       49.34140
C         68.97038       69.20847       49.51648
C         68.53155       69.77159       48.20898
O         68.29596       69.02163       47.27689
O         68.42689       71.10478       48.05299
H         70.88520       68.49320       51.37276
H         69.92736       67.50016       48.66171
H         69.17018       70.03715       50.22977
H         68.14481       68.58420       49.92353
N         71.71144       68.89556       47.41771
C         72.70360       69.68172       46.67802
C         72.05862       70.41851       45.48086
O         72.74579       71.23170       44.87624
C         73.83237       68.70529       46.18477
C         74.45178       67.86404       47.33447
C         74.95366       69.38003       45.36593
C         75.29657       68.64457       48.33955
H         71.25036       68.12190       46.91986
H         73.13932       70.45854       47.34201
H         73.34278       67.97159       45.50530
H         75.10068       67.07802       46.88741
H         73.64657       67.34450       47.89244
H         74.57313       69.81544       44.42273
H         75.45506       70.17842       45.95070
H         75.70991       68.62429       45.06282
H         75.67430       67.94062       49.11151
H         76.17837       69.10151       47.84548
H         74.69590       69.42950       48.83947
N         70.79140       70.14697       45.03081
C         70.29021       70.61278       43.72718
C         68.85607       71.14952       43.69434
O         68.44460       71.61645       42.64147
C         70.40816       69.44670       42.72625
C         69.62677       68.19970       43.10215
O         68.86317       68.13149       44.22259
O         69.71751       67.22242       42.38131
H         70.24365       69.44410       45.53260
H         70.93733       71.43707       43.35106
H         71.48342       69.16833       42.65921
H         70.09297       69.78908       41.71573
N         68.03159       71.11214       44.77301
C         66.67147       71.63595       44.77298
C         65.65411       70.89310       43.90990
O         64.51579       71.34047       43.89652
H         68.39830       70.75017       45.65096
H         66.70256       72.70210       44.46176
H         66.28535       71.60196       45.81536
N         65.94155       69.77218       43.17809
C         64.93764       69.09146       42.34430
C         63.83269       68.38512       43.14797
O         62.96390       67.77643       42.53873
C         65.62190       68.10705       41.36091
C         66.24661       66.89881       41.99213
O         66.12609       66.67461       43.30762
O         66.84136       66.09176       41.29696
H         66.90597       69.41767       43.16944
H         64.46117       69.85809       41.69556
H         66.40607       68.66237       40.80262
H         64.87191       67.74291       40.62563
N         63.79969       68.42014       44.50954
C         62.80603       67.75068       45.32652
C         62.97316       66.25266       45.30507
O         61.99206       65.55084       45.11099
H         64.50339       68.95881       45.02020
H         61.77677       68.06548       45.04480
H         62.96568       68.05981       46.38301
N         64.19284       65.70090       45.57650
C         64.42496       64.27635       45.77742
C         65.88162       64.03069       46.28793
O         66.83270       64.19123       45.27045
C         64.02924       63.39275       44.55497
C         64.68202       63.78067       43.21425
C         64.31355       62.85962       42.07677
N         64.84374       63.07059       40.84983
O         63.55600       61.91606       42.25220
H         64.98648       66.33807       45.72418
H         63.76149       63.97170       46.61729
H         62.93045       63.44071       44.40953
H         64.27047       62.33545       44.79861
H         65.77829       63.73845       43.28744
H         64.37169       64.81176       42.94580
H         65.49156       63.85477       40.68587
H         64.61611       62.44478       40.06345
N         66.00316       62.67435       46.85055
C         67.31900       62.40809       47.47647
C         68.06403       61.41915       46.59516
O         67.62995       60.28414       46.45355
C         67.15960       61.88622       48.94069
C         68.47490       61.34096       49.52262
C         66.64213       63.00875       49.86004
H         65.21189       62.48684       47.50761
H         67.92379       63.34223       47.53031
H         66.42785       61.04730       48.94461
H         68.31017       60.98425       50.56217
H         68.82999       60.46796       48.93657
H         69.26458       62.12103       49.52528
H         65.68217       63.43176       49.50076
H         66.47825       62.62140       50.88769
H         67.38631       63.83140       49.91696
N         69.19207       61.81591       45.94178
C         69.95817       60.96086       45.03774
C         70.77070       59.91025       45.79444
O         70.83100       59.92395       47.01570
C         70.87766       61.87875       44.18307
C         71.71707       61.23327       43.10692
N         71.15009       60.50581       42.11801
O         72.92880       61.39071       43.11551
H         69.47221       62.80391       46.03390
H         69.24460       60.45506       44.35130
H         71.54609       62.43361       44.86708
H         70.22978       62.60802       43.66917
H         70.13166       60.36020       42.08582
H         71.73920       60.07154       41.39180
N         71.43644       58.96250       45.07966
C         72.34718       57.95255       45.61709
C         73.60126       58.56951       46.23266
O         74.28417       57.88163       46.97960
C         72.75587       57.05570       44.42540
C         73.67991       55.90306       44.69920
C         73.29386       54.85805       45.55001
C         74.92010       55.83668       44.04040
C         74.13176       53.75185       45.72501
C         75.75496       54.73345       44.21768
C         75.36222       53.68347       45.05224
O         76.16819       52.61225       45.19033
H         71.26870       58.95200       44.06719
H         71.80183       57.36306       46.38710
H         73.22149       57.71930       43.66046
H         71.83220       56.63247       43.97443
H         72.33787       54.88953       46.05729
H         75.23490       56.62874       43.37146
H         73.81738       52.94273       46.37110
H         76.70027       54.68911       43.69123
H         75.92245       51.85121       45.73465
N         73.99430       59.83785       45.92042
C         75.19312       60.48689       46.43675
C         74.83109       61.70776       47.27531
O         75.73527       62.34874       47.79006
C         76.11992       60.85933       45.26195
C         76.59142       59.60455       44.50740
C         77.45673       59.96525       43.33536
O         78.60915       60.63646       43.52254
O         77.12463       59.64040       42.20633
H         73.42735       60.38535       45.26387
H         75.75611       59.80489       47.11265
H         77.01614       61.39385       45.64868
H         75.57848       61.53797       44.56649
H         75.71156       59.03263       44.14211
H         77.17243       58.95146       45.19491
N         73.52713       62.02755       47.53526
C         73.11843       63.02955       48.50661
C         72.60771       62.34365       49.76930
O         72.28219       63.04961       50.71490
C         71.98124       63.89124       47.93190
C         72.36468       64.66796       46.66845
C         71.18767       65.43326       46.12732
O         69.99551       65.39438       46.75277
O         71.30877       66.09642       45.11077
H         72.77250       61.46460       47.13078
H         73.97745       63.67333       48.79675
H         71.64960       64.62109       48.70183
H         71.12584       63.21841       47.69823
H         72.72728       63.97508       45.88656
H         73.18403       65.37057       46.90103
N         72.49868       60.98255       49.86285
C         72.00790       60.29564       51.03708
H         71.09353       59.72595       50.76796
H         72.78267       59.58350       51.39021
H         71.76138       60.99164       51.86450
H         72.75720       60.37440       49.07386
Ca        67.97471       66.19821       45.07963
O         68.91614       64.52853       43.09387
H         68.07234       64.05820       42.88594
H         69.28786       64.77103       42.21156
O         67.19573       66.13699       48.20348
H         66.70558       66.24548       49.05628
H         68.01265       65.63817       48.44728
O         65.77932       68.26549       47.02550
H         65.75414       69.25320       46.97372
H         65.15640       68.03342       47.75708

Ca 1.0



