%chk=holoCaM-CaMKII.loop2.water2.frame219.chk
%nprocshared=20
%mem=10GB
%nosave
#b3lyp/svp scf=(tight,noincore,xqc) Test 
#IOP(5/87=12) Density=Current Pop=(MK,readradii) iop(6/33=2) iop(6/42=6)

holoCaM-CaMKII.loop2.water2.frame219 

   -2  1 
C         17.10498       51.09342       53.13204
C         16.60090       51.25885       54.53242
O         17.23714       51.96197       55.29458
H         18.10248       50.60815       53.14230
H         16.40658       50.48852       52.51848
H         17.19832       52.09936       52.66772
N         15.45716       50.65138       54.94852
C         14.86271       50.89285       56.25588
C         14.90361       49.64192       57.11300
O         14.41186       48.60327       56.69539
C         13.43775       51.42205       56.04457
C         12.76143       51.73812       57.33961
O         11.66011       51.27156       57.57436
O         13.36204       52.53636       58.24309
H         14.96055       50.02280       54.29855
H         15.41884       51.69075       56.79414
H         12.82579       50.69292       55.46958
H         13.49936       52.35670       55.45113
N         15.47058       49.69924       58.35496
C         15.58888       48.56643       59.26369
C         14.76784       48.75090       60.53747
O         14.76554       47.83874       61.35285
C         17.07003       48.40780       59.64022
H         15.84093       50.60225       58.68249
H         15.23715       47.63611       58.76925
H         17.43197       49.32321       60.16239
H         17.22145       47.53994       60.31609
H         17.68891       48.26117       58.73027
N         14.09378       49.90767       60.80823
C         13.41967       50.17086       62.07872
C         11.99242       50.70584       61.92598
O         11.35670       50.92346       62.94898
C         14.30216       51.13193       62.91066
C         14.83887       52.29887       62.12314
O         14.08772       53.06943       61.55933
O         16.16898       52.46872       62.00009
H         14.14744       50.68678       60.13959
H         13.32149       49.23836       62.67747
H         15.18521       50.56024       63.26871
H         13.74880       51.48379       63.80803
N         11.40476       50.92986       60.71466
C         10.03405       51.41538       60.56632
C          9.78048       52.82586       61.09527
O          8.62899       53.23712       61.07813
H         11.92180       50.69849       59.86216
H          9.35718       50.70883       61.09614
H          9.75050       51.40228       59.49193
N         10.77240       53.61260       61.60822
C         10.52589       54.88976       62.28205
C         10.16901       56.06775       61.36127
O          9.99161       57.16284       61.87693
C         11.70680       55.23816       63.22267
C         13.01300       55.61744       62.57660
N         14.05590       55.96549       63.36386
O         13.14277       55.61911       61.36298
H         11.72337       53.23830       61.63223
H          9.67464       54.73353       62.98156
H         11.89335       54.36758       63.89146
H         11.39941       56.09215       63.86199
H         13.96224       55.96735       64.38964
H         14.95669       56.24120       62.95718
N         10.00424       55.92875       60.01401
C          9.58277       57.01335       59.12983
C         10.65743       58.02753       58.74764
O         10.34755       58.89433       57.94311
H         10.07008       54.99205       59.59943
H          8.69726       57.52768       59.56530
H          9.25539       56.55606       58.17186
N         11.92389       57.99456       59.25056
C         12.99084       58.92190       58.86380
C         14.23445       58.16040       58.42250
O         14.68279       57.30688       59.16412
C         13.35149       59.85758       60.05432
C         12.24493       60.88324       60.29147
O         13.54926       59.16314       61.26383
H         12.14955       57.29153       59.96050
H         12.68308       59.58074       58.02140
H         14.26578       60.44041       59.79222
H         14.22234       58.45454       61.12741
H         12.55658       61.58230       61.09701
H         12.05961       61.47722       59.37084
H         11.30569       60.37833       60.59867
N         14.89219       58.45560       57.25999
C         16.18416       57.84400       56.91796
C         17.21505       58.25405       57.97480
O         17.32674       59.43945       58.25728
C         16.68273       58.23546       55.48246
C         15.63051       57.84943       54.40213
C         18.02903       57.52968       55.19024
C         16.07290       58.11809       52.95837
H         14.49623       59.17783       56.64100
H         16.07094       56.73797       56.90718
H         16.85239       59.33433       55.43522
H         14.70430       58.43569       54.56840
H         15.37701       56.77150       54.48431
H         17.90350       56.42513       55.20074
H         18.44946       57.83533       54.21171
H         18.79647       57.80969       55.93505
H         16.91745       57.45944       52.66735
H         15.23571       57.88792       52.26614
H         16.36654       59.18031       52.82537
N         18.03724       57.32881       58.55501
C         19.06356       57.65120       59.54714
C         20.43782       57.57782       58.89744
O         20.51241       57.24666       57.72687
C         18.97954       56.70085       60.76933
C         17.72573       56.87477       61.59442
O         16.51617       56.47352       61.15367
O         17.81094       57.35402       62.71402
H         18.00140       56.36124       58.20790
H         18.95029       58.69961       59.90024
H         19.83618       56.93746       61.43561
H         19.08591       55.63760       60.46026
N         21.57165       57.93700       59.57039
C         22.88769       57.98220       58.93317
C         23.35640       56.62102       58.42663
O         23.76573       56.57515       57.27688
C         23.96146       58.63084       59.83817
C         25.28701       58.75222       59.10935
C         26.42761       58.08206       59.58662
C         25.39100       59.52244       57.93439
C         27.64249       58.17605       58.89854
C         26.60615       59.61056       57.24959
C         27.73090       58.93751       57.73039
H         21.48818       58.25128       60.54952
H         22.79758       58.65829       58.05385
H         24.09287       58.04543       60.76633
H         23.62710       59.64717       60.13819
H         26.37715       57.48049       60.48535
H         24.53288       60.05188       57.54159
H         28.51591       57.65493       59.26851
H         26.67450       60.19949       56.34374
H         28.67041       59.00603       57.19702
N         23.35572       55.47567       59.18374
C         23.76934       54.17239       58.66779
C         23.10590       53.84869       57.34156
O         23.76877       53.45804       56.39130
C         23.27427       53.18907       59.74592
C         23.40129       54.01260       61.00311
C         22.86605       55.36498       60.54365
H         24.87839       54.14630       58.58686
H         22.18341       52.99440       59.63067
H         23.79482       52.20799       59.75209
H         22.89298       53.59690       61.89956
H         24.48784       54.12047       61.22112
H         21.75423       55.38397       60.52190
H         23.25021       56.13402       61.23600
N         21.76562       54.01975       57.23533
C         20.95700       53.71909       56.06161
C         21.31748       54.61418       54.88590
O         21.31840       54.13742       53.76006
C         19.46946       53.85135       56.45119
C         19.13141       52.79984       57.54540
C         17.78453       52.95110       58.16683
O         17.53680       52.33972       59.19328
O         16.89680       53.84304       57.71320
H         21.28745       54.39893       58.06706
H         21.10929       52.65969       55.75649
H         18.82749       53.70816       55.56192
H         19.28744       54.87994       56.83241
H         19.82750       52.91309       58.39817
H         19.25329       51.76711       57.15762
N         21.67429       55.91248       55.07466
C         22.06366       56.79213       53.99578
H         22.93729       56.36874       53.45641
H         21.21578       56.93344       53.29465
H         22.35529       57.78348       54.40781
H         21.70245       56.28820       56.02247
Ca        16.22480       55.18638       59.34174
O         12.39268       55.11965       58.29325
H         12.29326       55.65943       57.47080
H         11.71573       54.40491       58.19431
O         14.51539       54.72684       56.15704
H         15.16894       54.09037       55.77376
H         13.85014       54.86122       55.43667

Ca 1.0



