%chk=holoCaM.loop1.water2.frame336.chk
%nprocshared=20
%mem=10GB
%nosave
#b3lyp/svp scf=(tight,noincore,xqc) Test 
#IOP(5/87=12) Density=Current Pop=(MK,readradii) iop(6/33=2) iop(6/42=6)

holoCaM.loop1.water2.frame336 

   0  1 
C         -1.72621       36.80089        2.10531
C         -1.83675       37.70630        0.91838
O         -1.45540       38.86158        1.02273
H         -2.31487       37.22297        2.94621
H         -2.10902       35.78457        1.87591
H         -0.66096       36.72188        2.40675
N         -2.32481       37.24835       -0.26560
C         -2.43344       38.10982       -1.43218
C         -3.53411       39.14093       -1.18258
O         -4.63861       38.72465       -0.85760
C         -2.72574       37.26052       -2.69059
C         -2.42003       38.01982       -3.94756
O         -1.82762       39.22262       -3.87088
O         -2.63393       37.51697       -5.03443
H         -2.59218       36.25453       -0.34441
H         -1.43893       38.58582       -1.57991
H         -3.78075       36.90791       -2.67788
H         -2.05994       36.37036       -2.70898
N         -3.31660       40.48847       -1.28515
C         -4.30507       41.47787       -0.84256
C         -5.08698       42.13582       -1.97650
O         -6.03832       42.83941       -1.66538
C         -3.62759       42.56088        0.03310
C         -2.80920       42.02402        1.22259
C         -3.65096       41.22629        2.22711
C         -2.80361       40.77219        3.42506
N         -3.60298       39.97692        4.35580
H         -2.40511       40.82256       -1.62536
H         -5.08151       40.96798       -0.23292
H         -4.39989       43.26178        0.41992
H         -2.93115       43.14576       -0.60862
H         -2.35869       42.89690        1.74474
H         -1.97732       41.39343        0.84594
H         -4.06953       40.32745        1.72799
H         -4.48718       41.86016        2.59425
H         -2.39343       41.66073        3.95406
H         -1.94636       40.16077        3.07491
H         -4.39175       40.55075        4.73256
H         -3.98193       39.13087        3.87081
H         -2.99740       39.66638        5.14952
N         -4.77900       41.95668       -3.29441
C         -5.58686       42.51052       -4.39318
C         -6.10285       41.40581       -5.33143
O         -6.81618       41.72553       -6.27200
C         -4.78890       43.62427       -5.12148
C         -3.53739       43.12419       -5.77486
O         -3.37208       41.80292       -5.90780
O         -2.66874       43.89902       -6.13961
H         -3.93694       41.41320       -3.52853
H         -6.48966       43.01488       -3.98498
H         -4.50188       44.36471       -4.34138
H         -5.41108       44.15152       -5.87586
N         -5.82807       40.08386       -5.10577
C         -6.39740       38.97962       -5.86381
C         -5.90322       38.84680       -7.28857
O         -6.72474       38.80312       -8.19275
H         -5.25416       39.81113       -4.29650
H         -7.50679       39.05018       -5.83734
H         -6.11570       38.03191       -5.35473
N         -4.57437       38.70188       -7.55498
C         -4.03568       38.38002       -8.87792
C         -3.15245       37.12007       -8.85403
O         -2.52469       36.83123       -9.86405
C         -3.32125       39.60385       -9.48847
C         -2.27753       40.22485       -8.61769
O         -1.25142       39.49819       -8.15963
O         -2.34382       41.41088       -8.34265
H         -3.90769       38.80588       -6.77674
H         -4.85083       38.15359       -9.60004
H         -4.08691       40.37977       -9.70974
H         -2.85988       39.31156      -10.45623
N         -3.11789       36.27323       -7.78074
C         -2.37034       35.01940       -7.76298
C         -0.86249       35.15627       -7.62849
O         -0.20942       34.12358       -7.57946
H         -3.72674       36.45829       -6.97308
H         -2.62172       34.42543       -8.66878
H         -2.69980       34.43020       -6.87894
N         -0.23576       36.36395       -7.53117
C          1.20479       36.51289       -7.31701
C          1.46044       37.27520       -6.02669
O          0.61591       38.06078       -5.61833
C          1.88313       37.21537       -8.51793
C          1.81403       36.36002       -9.79564
O          1.34042       38.49495       -8.73301
H         -0.79972       37.21752       -7.58016
H          1.68797       35.51716       -7.20745
H          2.96354       37.34668       -8.29118
H          0.55673       38.40279       -9.33520
H          2.32447       36.88964      -10.62831
H          2.32216       35.38676       -9.63195
H          0.76015       36.16862      -10.09145
N          2.61640       37.07780       -5.32423
C          2.91329       37.75534       -4.06559
C          4.11707       38.66822       -4.25856
O          5.23176       38.19496       -4.42826
C          3.08484       36.70930       -2.91649
C          1.70739       36.04620       -2.62764
C          3.65789       37.33953       -1.63489
C          1.73184       34.96352       -1.54592
H          3.31523       36.41420       -5.69228
H          2.06596       38.40772       -3.77590
H          3.81605       35.93891       -3.24764
H          1.32514       35.57770       -3.55893
H          0.97891       36.82758       -2.31202
H          4.63806       37.81986       -1.82854
H          2.95534       38.07918       -1.21716
H          3.85376       36.56679       -0.86585
H          2.01634       35.37897       -0.55748
H          0.71273       34.53607       -1.43460
H          2.43394       34.15165       -1.82654
N          3.92501       40.01986       -4.25907
C          4.98902       41.02051       -4.36751
C          5.76409       41.11904       -3.05930
O          5.46309       40.38647       -2.13335
C          4.38216       42.41789       -4.69140
C          3.64911       42.44670       -6.03928
O          3.55743       42.86856       -3.64426
H          2.95275       40.34903       -4.19625
H          5.67242       40.75310       -5.20392
H          5.20040       43.15858       -4.80000
H          2.66424       42.45096       -3.73224
H          3.27072       43.47197       -6.23798
H          4.34341       42.16169       -6.85800
H          2.79142       41.74772       -6.03919
N          6.75094       42.04508       -2.89497
C          7.41821       42.28859       -1.61632
C          6.43062       42.78668       -0.56063
O          6.41749       42.22435        0.52572
C          8.58666       43.29371       -1.76253
C          9.70004       42.73520       -2.65889
O          8.12571       44.51733       -2.27476
H          7.01953       42.62213       -3.70473
H          7.87357       41.33931       -1.25037
H          9.01860       43.44658       -0.74414
H          8.78954       45.20704       -2.01122
H         10.07910       41.77597       -2.24475
H          9.33918       42.55958       -3.69307
H         10.54610       43.45284       -2.69933
N          5.57047       43.82784       -0.80461
C          4.64962       44.36842        0.20901
C          3.61925       43.36087        0.73343
O          2.86995       43.71242        1.63441
C          3.92434       45.64217       -0.30941
C          2.87397       45.37136       -1.40286
C          2.19080       46.66225       -1.87371
C          1.09722       46.35877       -2.91081
N          0.45858       47.58836       -3.38006
H          5.60202       44.27497       -1.73266
H          5.27613       44.68795        1.07054
H          4.68453       46.36120       -0.68479
H          3.40159       46.12261        0.54734
H          2.09226       44.70086       -0.99171
H          3.35489       44.88628       -2.27210
H          2.95260       47.33531       -2.32347
H          1.72590       47.17612       -1.00388
H          0.32564       45.69806       -2.45411
H          1.54399       45.82785       -3.77952
H         -0.28949       47.34463       -4.06923
H          0.02468       48.10057       -2.57801
H          1.16377       48.20075       -3.85074
N          3.52545       42.10078        0.22915
C          2.57273       41.09376        0.66873
C          3.31144       39.99166        1.41251
O          2.92394       39.68554        2.53128
C          1.81589       40.56914       -0.56382
C          0.92591       41.66629       -1.17018
C          0.23575       41.23762       -2.42808
O          0.44349       40.14029       -2.91666
O         -0.61308       42.08690       -3.03574
H          4.15292       41.81692       -0.52826
H          1.82185       41.51123        1.37709
H          1.16986       39.70984       -0.27678
H          2.55031       40.23479       -1.32789
H          1.53608       42.55287       -1.42474
H          0.15715       41.95716       -0.42300
N          4.41481       39.39152        0.88465
C          5.19791       38.38601        1.57439
H          6.22416       38.77700        1.74387
H          4.76259       38.10684        2.55578
H          5.26860       37.47499        0.94626
H          4.75078       39.68153       -0.03576
Ca        -1.52639       40.65102       -5.54518
O          0.74094       41.57284       -7.79640
H          0.99499       40.77700       -7.26434
H          1.54417       41.77982       -8.33612
O          0.40052       43.35185       -5.45605
H          0.83880       43.66117       -4.62538
H         -0.03867       44.16177       -5.81558

Ca 1.0



