%chk=holoCaM-CaMKII.loop4.water2.frame98.chk
%nprocshared=20
%mem=10GB
%nosave
#b3lyp/svp scf=(tight,noincore,xqc) Test 
#IOP(5/87=12) Density=Current Pop=(MK,readradii) iop(6/33=2) iop(6/42=6)

holoCaM-CaMKII.loop4.water2.frame98 

   -3  1 
C         24.40920       39.76775       48.36426
C         25.45702       38.87659       48.94706
O         26.48515       39.36275       49.39480
H         23.47206       39.65419       48.95037
H         24.73125       40.82890       48.40028
H         24.22034       39.47373       47.31133
N         25.24078       37.53739       48.99445
C         26.17200       36.61391       49.61617
C         27.50477       36.59627       48.86800
O         27.50430       36.30318       47.68048
C         25.52769       35.21346       49.68224
C         26.25611       34.32051       50.62501
O         25.82023       33.21382       50.86927
O         27.33716       34.78197       51.26883
H         24.34861       37.17517       48.62133
H         26.31281       36.95890       50.66222
H         25.44301       34.75824       48.67170
H         24.50613       35.31480       50.11147
N         28.67912       36.90741       49.50018
C         29.96128       37.01695       48.80378
C         30.71168       35.69036       48.86792
O         30.90314       35.07948       47.82525
C         30.80732       38.21276       49.36024
C         30.00336       39.53976       49.28550
C         32.14226       38.32691       48.59724
C         30.74366       40.76255       49.84241
H         28.65821       37.11267       50.50612
H         29.76261       37.23412       47.72911
H         31.04162       38.02128       50.43074
H         29.07729       39.42746       49.88571
H         29.71261       39.75155       48.23432
H         32.72419       37.38538       48.67484
H         31.96036       38.55008       47.52480
H         32.78537       39.11933       49.02981
H         31.63169       41.01478       49.23020
H         30.06537       41.64184       49.82414
H         31.07085       40.59420       50.88745
N         31.18927       35.19267       50.04743
C         31.93441       33.92819       50.14021
C         31.09313       32.69705       49.77208
O         31.66473       31.61854       49.68749
C         32.55325       33.73558       51.55977
C         31.51675       33.69642       52.64998
O         30.24587       33.91144       52.30265
O         31.82257       33.51633       53.81685
H         31.05489       35.76030       50.89633
H         32.78241       33.98535       49.42224
H         33.25316       34.57115       51.77316
H         33.13045       32.78600       51.57940
N         29.74776       32.76599       49.54309
C         28.94744       31.62083       49.14317
C         28.88544       30.53642       50.19562
O         29.26807       29.41429       49.89452
H         29.25574       33.66563       49.61959
H         29.35220       31.20976       48.19096
H         27.90584       31.95494       48.94563
N         28.36457       30.78446       51.43497
C         28.16892       29.73856       52.44373
C         26.68481       29.52295       52.77199
O         26.38413       28.63055       53.55143
C         29.03591       30.02785       53.69309
C         28.61591       31.19520       54.54347
O         29.38164       31.56094       55.58826
O         27.57283       31.78586       54.33579
H         28.07130       31.74732       51.65649
H         28.53485       28.76871       52.04315
H         30.07842       30.19841       53.34581
H         29.03872       29.13694       54.35600
N         25.70703       30.28586       52.19591
C         24.27607       30.09278       52.37252
C         23.57156       31.27711       53.01512
O         22.34802       31.27100       53.01682
H         25.97041       31.02466       51.54469
H         24.04757       29.18981       52.97695
H         23.84505       29.93567       51.35992
N         24.24823       32.27694       53.65483
C         23.58735       33.34982       54.40055
C         24.15091       34.71852       54.05625
O         25.08390       34.82139       53.27354
C         23.75492       33.07582       55.91248
C         22.91593       31.86476       56.34744
C         23.06636       31.58407       57.81741
N         24.25417       31.18113       58.32396
O         22.10099       31.70367       58.55717
H         25.27262       32.22502       53.71113
H         22.49971       33.38944       54.16912
H         23.39610       33.93956       56.51086
H         24.83231       32.92638       56.14244
H         23.20234       30.95321       55.78368
H         21.84858       32.09295       56.12709
H         25.07242       31.05481       57.71068
H         24.35091       30.97742       59.32958
N         23.61316       35.82891       54.63866
C         24.08936       37.18826       54.42494
C         24.59522       37.72171       55.75487
O         23.84438       37.71674       56.72226
C         22.94493       38.08296       53.86785
C         23.44066       39.51569       53.59420
C         22.36065       37.50088       52.57101
H         22.81833       35.71073       55.28633
H         24.91617       37.20351       53.68112
H         22.12319       38.13274       54.61717
H         24.25482       39.51215       52.83680
H         22.60775       40.14606       53.21515
H         23.82076       39.99012       54.52185
H         21.53425       38.14636       52.20207
H         23.14008       37.43091       51.78210
H         21.93815       36.49010       52.75065
N         25.85088       38.23783       55.86075
C         26.39215       38.81403       57.08822
C         26.33244       40.33112       56.99203
O         26.00999       40.84209       55.92964
C         27.81957       38.25544       57.29013
C         28.54388       38.77414       58.50417
N         28.06314       38.55656       59.74933
O         29.59147       39.38694       58.35977
H         26.42721       38.29445       55.01065
H         25.74940       38.53408       57.95102
H         28.42241       38.50089       56.38676
H         27.76168       37.14778       57.36630
H         27.18614       38.03652       59.89334
H         28.57140       38.91315       60.57227
N         26.51715       41.11989       58.09174
C         26.31918       42.56596       58.04833
C         27.35366       43.24961       57.18081
O         27.01836       44.21937       56.51478
C         26.32436       43.19422       59.45531
C         25.87997       44.64058       59.38725
C         24.58397       44.95577       58.93592
C         26.74740       45.68267       59.75217
C         24.16854       46.28428       58.84007
C         26.32744       47.01492       59.65636
C         25.03641       47.31874       59.19699
O         24.61922       48.59648       59.09337
H         26.71503       40.67566       58.99934
H         25.31047       42.73467       57.61263
H         27.34287       43.09789       59.89348
H         25.61483       42.64967       60.11478
H         23.89166       44.17331       58.65203
H         27.74965       45.46696       60.10000
H         23.17035       46.50793       58.48429
H         27.00679       47.81024       59.93470
H         25.18676       49.34455       59.32619
N         28.63505       42.79185       57.13532
C         29.63873       43.35405       56.24199
C         29.14462       43.20774       54.80891
O         29.11812       44.18024       54.06829
C         30.98638       42.61546       56.43532
C         32.15539       43.34658       55.75773
C         33.43942       42.58303       55.92721
O         33.90445       42.29790       57.15922
O         34.07262       42.22417       54.94724
H         28.89249       41.98783       57.72771
H         29.79555       44.42490       56.50387
H         30.90427       41.57195       56.05698
H         31.21932       42.56813       57.52231
H         32.27625       44.34806       56.22701
H         31.94925       43.48712       54.67539
N         28.68636       41.99416       54.38588
C         28.18644       41.71991       53.03997
C         26.92293       42.50331       52.69434
O         26.60894       42.59957       51.51602
C         27.85007       40.21746       52.89156
C         29.06068       39.29719       53.13562
C         28.71509       37.84008       53.03969
O         29.59978       37.00816       53.14798
O         27.44909       37.43249       52.83399
H         28.70360       41.22583       55.07133
H         28.98687       41.99177       52.31703
H         27.46396       40.02424       51.86702
H         27.04356       39.97072       53.61285
H         29.49949       39.45633       54.14007
H         29.83306       39.52480       52.38181
N         26.10506       43.00813       53.66056
C         24.85432       43.68933       53.39186
H         24.02074       43.11528       53.85139
H         24.88006       44.70127       53.84706
H         24.64941       43.79260       52.30626
H         26.34942       42.87487       54.64391
Ca        28.23613       34.05593       53.16604
O         27.25038       34.36680       56.50032
H         28.03439       33.78761       56.67362
H         26.67110       34.24105       57.29331
O         29.90427       35.85040       55.69448
H         30.73478       35.52340       55.26665
H         30.15202       35.99424       56.64144

Ca 1.0



