%chk=holoCaM.loop4.water3.frame204.chk
%nprocshared=20
%mem=10GB
%nosave
#b3lyp/svp scf=(tight,noincore,xqc) Test 
#IOP(5/87=12) Density=Current Pop=(MK,readradii) iop(6/33=2) iop(6/42=6)

holoCaM.loop4.water3.frame204 

   -3  1 
C         18.71022       47.51425       63.33373
C         20.19643       47.36144       63.21154
O         20.74107       46.49817       63.88361
H         18.32360       48.30237       62.65622
H         18.22589       46.54994       63.06531
H         18.44326       47.76870       64.38082
N         20.92338       48.14041       62.35448
C         22.33532       47.88448       62.09644
C         23.07421       49.14968       61.65559
O         22.65571       49.75522       60.67838
C         22.42835       46.82319       60.97927
C         23.80818       46.25744       60.83064
O         24.05060       45.48022       59.92206
O         24.75829       46.53244       61.74143
H         20.42132       48.81057       61.75260
H         22.80296       47.47624       63.01711
H         22.09344       47.27517       60.01989
H         21.75859       45.96549       61.20133
N         24.21003       49.57523       62.29337
C         24.99926       50.73409       61.85189
C         26.42723       50.36053       61.41800
O         27.13954       51.25518       60.98295
C         25.06070       51.83218       62.96688
C         25.91082       51.38983       64.19463
C         23.63974       52.27208       63.36560
C         26.12585       52.49286       65.23324
H         24.53643       49.04577       63.11024
H         24.51554       51.19300       60.96272
H         25.56741       52.71971       62.52612
H         26.92254       51.09473       63.85025
H         25.46417       50.51465       64.69366
H         23.66539       53.12184       64.07698
H         23.08171       52.61269       62.46884
H         23.07542       51.44003       63.83121
H         26.79375       52.11517       66.03710
H         26.60998       53.37479       64.76224
H         25.17252       52.79978       65.70731
N         26.94071       49.10250       61.57904
C         28.37071       48.79606       61.42891
C         28.69060       47.41964       60.81301
O         29.86986       47.13902       60.64288
C         29.06067       48.88481       62.81290
C         28.54505       47.86574       63.79311
O         27.46138       47.12927       63.49110
O         29.11484       47.69748       64.85848
H         26.33116       48.40109       61.99861
H         28.84808       49.56268       60.77980
H         28.94880       49.89994       63.24815
H         30.14837       48.70485       62.66693
N         27.73656       46.51138       60.45850
C         28.05210       45.23036       59.83547
C         28.74678       44.17894       60.70614
O         29.14850       43.18188       60.12220
H         26.74947       46.76376       60.53832
H         28.69431       45.43789       58.95131
H         27.11834       44.76799       59.44985
N         28.93879       44.28347       62.06214
C         29.73876       43.29421       62.80657
C         29.21702       41.85721       62.75304
O         29.96529       40.96523       63.12867
C         30.01469       43.68509       64.29719
C         29.07944       43.07046       65.33910
O         27.77379       43.37748       65.42194
O         29.52537       42.24137       66.11672
H         28.60016       45.12076       62.54323
H         30.72550       43.31537       62.29065
H         30.11586       44.78506       64.41465
H         31.01362       43.25537       64.53490
N         27.93734       41.56304       62.38208
C         27.38714       40.21347       62.39829
C         26.25724       40.03878       63.40200
O         25.73930       38.93358       63.47944
H         27.31196       42.32482       62.10106
H         28.16743       39.46610       62.65447
H         27.01229       39.97175       61.38080
N         25.80975       41.05935       64.19451
C         24.73081       40.90544       65.17750
C         24.21550       42.25807       65.68119
O         24.73523       43.29426       65.29113
C         25.15865       39.96209       66.33505
C         26.38944       40.45268       67.11942
C         26.79534       39.49758       68.22308
N         27.87417       39.77309       68.99155
O         26.16044       38.47227       68.42833
H         26.23396       41.98482       64.07180
H         23.85923       40.44629       64.66075
H         25.39042       38.95922       65.92003
H         24.31045       39.82471       67.03828
H         26.17333       41.44413       67.57131
H         27.24708       40.55492       66.42132
H         28.42702       40.62828       68.83552
H         28.16016       39.12722       69.74316
N         23.14964       42.31774       66.53080
C         22.48922       43.56331       66.91604
C         22.83678       43.89623       68.35407
O         22.60458       43.06297       69.21964
C         20.94382       43.42073       66.73742
C         20.20735       44.71886       67.11571
C         20.55712       43.03334       65.30077
H         22.75326       41.43889       66.89683
H         22.82671       44.39907       66.27023
H         20.58226       42.60847       67.40698
H         20.39849       44.99044       68.17361
H         20.53422       45.55933       66.46714
H         19.10996       44.58714       66.99918
H         20.84476       43.82891       64.58774
H         21.03804       42.07909       64.99988
H         19.45715       42.89116       65.22648
N         23.34597       45.12495       68.68642
C         23.60940       45.52474       70.06869
C         22.57249       46.53549       70.53190
O         21.68975       46.88325       69.76573
C         25.06649       46.00942       70.29640
C         25.39234       47.41388       69.83728
N         25.47559       47.73215       68.53119
O         25.62850       48.27303       70.67469
H         23.46860       45.82427       67.94198
H         23.48903       44.63895       70.72812
H         25.79118       45.28469       69.86733
H         25.23347       45.99942       71.39463
H         25.31828       47.02299       67.80865
H         25.73795       48.68825       68.24825
N         22.59480       47.01077       71.80575
C         21.56054       47.87195       72.37215
C         21.35329       49.16845       71.60026
O         20.21774       49.45502       71.24601
C         21.80708       48.11946       73.87971
C         23.07019       48.86535       74.25125
C         23.04974       50.26297       74.39188
C         24.26086       48.16959       74.53084
C         24.19880       50.95131       74.79468
C         25.41006       48.86065       74.92616
C         25.38399       50.25169       75.06099
O         26.49786       50.90236       75.45344
H         23.35363       46.68996       72.41903
H         20.59806       47.31273       72.33009
H         21.81708       47.13519       74.39787
H         20.93400       48.66014       74.30569
H         22.14194       50.81947       74.19560
H         24.30298       47.09092       74.45475
H         24.16614       52.02835       74.89929
H         26.31948       48.31214       75.13851
H         26.51925       51.86306       75.56904
N         22.39177       49.99281       71.28990
C         22.21933       51.26476       70.58176
C         21.51412       51.06117       69.25083
O         20.55519       51.76571       68.96787
C         23.57313       51.97340       70.33798
C         24.29852       52.32642       71.64670
C         25.55537       53.10573       71.39228
O         26.74582       52.61154       71.78314
O         25.50388       54.19962       70.85283
H         23.33823       49.68776       71.55575
H         21.60032       51.95151       71.20289
H         23.36676       52.92163       69.79153
H         24.23348       51.34150       69.70367
H         24.57309       51.39776       72.18051
H         23.63294       52.93280       72.29867
N         21.92762       50.08410       68.40113
C         21.32354       49.82188       67.09521
C         19.83168       49.55753       67.20551
O         19.06599       50.26547       66.56587
C         22.02574       48.62392       66.42361
C         23.47884       48.96717       66.07222
C         24.25234       47.80432       65.52224
O         25.42697       47.95064       65.23014
O         23.68751       46.59320       65.38398
H         22.70646       49.48787       68.71914
H         21.46104       50.71297       66.44077
H         21.50398       48.36573       65.48086
H         21.98528       47.74540       67.10460
H         24.01592       49.33379       66.96346
H         23.46543       49.78247       65.32853
N         19.34711       48.56329       67.99779
C         17.93700       48.25984       68.13376
H         17.29944       48.90330       67.49171
H         17.76227       47.20111       67.84965
H         17.63016       48.40422       69.19087
H         20.00267       47.99555       68.54294
Ca        27.01305       45.18271       64.41840
O         27.32916       45.71461       67.16165
H         27.77880       45.04176       67.72969
H         27.99884       46.43225       67.03573
O         25.21324       43.55970       61.95642
H         25.81518       44.02651       61.32675
H         24.83912       42.80708       61.43380
O         22.98042       44.12649       63.36804
H         22.49338       43.96746       62.52291
H         22.87278       45.09197       63.54228

Ca 1.0



