%chk=holoCaM.loop4.water3.frame306.chk
%nprocshared=20
%mem=10GB
%nosave
#b3lyp/svp scf=(tight,noincore,xqc) Test 
#IOP(5/87=12) Density=Current Pop=(MK,readradii) iop(6/33=2) iop(6/42=6)

holoCaM.loop4.water3.frame306 

   -3  1 
C         20.85179       46.85731       88.96971
C         20.07145       47.83663       89.78979
O         18.85616       47.70778       89.83568
H         21.94112       47.05456       89.02799
H         20.65494       45.83279       89.35333
H         20.52431       46.91350       87.91044
N         20.69116       48.85212       90.46432
C         19.94074       49.76815       91.31235
C         20.79482       50.94602       91.78037
O         21.79442       50.73192       92.45084
C         19.40910       49.00865       92.55385
C         18.45421       49.82338       93.36803
O         18.00333       49.34892       94.54374
O         18.04368       50.89077       92.95118
H         21.70979       48.97514       90.36166
H         19.08981       50.15806       90.71600
H         20.27239       48.71261       93.18741
H         18.86592       48.08523       92.27157
N         20.41831       52.22557       91.48425
C         21.12072       53.42195       91.95463
C         20.21953       54.33476       92.80401
O         20.72557       55.34570       93.27685
C         21.71989       54.20661       90.74077
C         20.62294       54.70814       89.75704
C         22.77063       53.33695       90.02596
C         21.16083       55.57407       88.61447
H         19.58687       52.35810       90.89835
H         21.96737       53.13005       92.61381
H         22.25390       55.09609       91.14517
H         19.89079       55.32765       90.31783
H         20.08129       53.85238       89.30451
H         23.29809       53.90931       89.23664
H         23.54451       53.00405       90.74972
H         22.30015       52.44219       89.56612
H         21.69993       56.45777       89.01579
H         21.83618       54.99704       87.95079
H         20.31227       55.92899       87.99148
N         18.88769       54.08573       93.00419
C         17.97094       55.02019       93.66902
C         17.12176       54.43291       94.80983
O         16.41742       55.20137       95.44876
C         17.04099       55.63668       92.60719
C         16.15278       54.64423       91.88614
O         16.22443       53.30851       92.11855
O         15.34803       55.07498       91.08173
H         18.48809       53.24946       92.57602
H         18.55406       55.85635       94.11495
H         17.66166       56.16850       91.85171
H         16.39523       56.39721       93.09882
N         17.12123       53.10763       95.12685
C         16.37682       52.52539       96.24074
C         14.84983       52.57005       96.18505
O         14.25706       52.08035       97.13654
H         17.73621       52.47972       94.60788
H         16.70075       53.03005       97.17631
H         16.66009       51.45353       96.32239
N         14.12894       53.14054       95.17348
C         12.66433       53.26829       95.24266
C         11.89365       51.94288       95.14680
O         10.68664       51.97128       95.34321
C         12.15395       54.33205       94.23603
C         12.44348       54.05414       92.79486
O         13.02261       52.91095       92.42496
O         12.17293       54.88873       91.94831
H         14.63203       53.57744       94.39017
H         12.42072       53.69379       96.24083
H         12.65442       55.29121       94.48540
H         11.05735       54.47254       94.35062
N         12.50033       50.75646       94.85246
C         11.80721       49.47277       94.80525
C         11.62880       48.95229       93.39196
O         11.11158       47.85360       93.24518
H         13.49904       50.75146       94.63638
H         10.78983       49.54323       95.24766
H         12.37968       48.74081       95.41623
N         11.94928       49.71472       92.30603
C         11.66064       49.34113       90.92947
C         12.93813       49.45357       90.05086
O         13.27627       50.79402       89.83259
C         10.45473       50.17516       90.40325
C         10.54559       51.70307       90.64584
C          9.35630       52.47554       90.13552
N          9.30221       53.81490       90.32234
O          8.44273       51.90964       89.55386
H         12.34778       50.64374       92.45632
H         11.33943       48.27649       90.88886
H          9.54908       49.82790       90.94881
H         10.30451       49.95768       89.32386
H         11.43261       52.13785       90.15632
H         10.60764       51.89125       91.73844
H         10.06052       54.30685       90.81301
H          8.50211       54.36551       89.97999
N         12.73666       48.78511       88.75135
C         13.96328       48.83202       87.92347
C         13.77315       49.82290       86.77701
O         12.93689       49.60448       85.91246
C         14.41157       47.41083       87.45251
C         13.40385       46.70384       86.52679
C         15.79065       47.46681       86.78059
H         12.47072       47.79581       88.96069
H         14.80933       49.18704       88.55318
H         14.52280       46.78320       88.36557
H         13.75779       45.67453       86.30554
H         12.40600       46.62011       87.00381
H         13.29620       47.23103       85.55814
H         16.53504       47.91018       87.47575
H         16.13479       46.44367       86.52093
H         15.75561       48.07518       85.85402
N         14.52075       50.96098       86.72998
C         14.45963       51.94314       85.64580
C         15.02580       51.36929       84.35359
O         15.55427       50.27100       84.34234
C         15.25726       53.20079       86.09105
C         15.42427       54.34009       85.11818
N         14.35614       54.99839       84.61270
O         16.55168       54.69158       84.80403
H         15.15376       51.14566       87.51887
H         13.39831       52.23313       85.48024
H         16.26742       52.87610       86.40863
H         14.73753       53.62282       86.95674
H         13.39692       54.72209       84.86527
H         14.49361       55.77801       83.95204
N         14.92622       52.09429       83.21046
C         15.48474       51.73076       81.91533
C         17.00099       51.62818       81.98117
O         17.52347       50.56463       81.67690
C         14.99564       52.79316       80.89928
C         15.44634       52.68096       79.46619
C         15.29514       51.49125       78.73684
C         15.95609       53.82225       78.82037
C         15.64654       51.44789       77.38228
C         16.28926       53.78104       77.46621
C         16.13238       52.59347       76.74029
O         16.43199       52.54635       75.42664
H         14.39005       52.96741       83.26208
H         15.07334       50.74376       81.60748
H         15.25403       53.80631       81.28164
H         13.88569       52.72559       80.88742
H         14.89743       50.60259       79.20877
H         16.06369       54.75901       79.35425
H         15.52320       50.52786       76.82567
H         16.65451       54.67764       76.98064
H         16.73848       53.32659       74.94204
N         17.77775       52.68959       82.34661
C         19.24122       52.61977       82.34542
C         19.79369       51.65932       83.39034
O         20.93512       51.24302       83.24365
C         19.87277       54.02197       82.50805
C         19.52688       54.96386       81.33459
C         20.15293       54.56158       80.01986
O         20.99688       53.51392       79.93004
O         19.91389       55.21719       79.01915
H         17.31197       53.57913       82.57494
H         19.54188       52.20908       81.36041
H         20.98061       53.95256       82.58320
H         19.49861       54.46571       83.45761
H         19.89035       55.98531       81.57525
H         18.42521       55.01953       81.20998
N         19.05799       51.25266       84.46238
C         19.51308       50.20788       85.37735
C         19.50618       48.88629       84.63263
O         20.51762       48.19983       84.60243
C         18.59404       50.11915       86.61279
C         18.67260       51.40115       87.46471
C         17.73924       51.37988       88.64273
O         17.62475       52.47372       89.41723
O         17.07209       50.39255       88.90190
H         18.12870       51.67143       84.61435
H         20.53693       50.43130       85.75642
H         18.90944       49.25919       87.24563
H         17.54557       49.95020       86.28526
H         18.40696       52.27535       86.84058
H         19.71050       51.54730       87.83629
N         18.38372       48.49357       83.97050
C         18.29123       47.26934       83.21123
H         17.29316       47.21192       82.72290
H         19.06896       47.25162       82.41924
H         18.40840       46.39631       83.88475
H         17.56292       49.10668       83.97967
Ca        14.91391       51.67473       91.19195
O         15.93156       48.50894       90.96789
H         16.73505       49.06945       91.10575
H         16.21757       47.59897       91.22996
O         14.00900       53.37443       89.20615
H         14.65858       54.10202       89.04605
H         13.25882       53.80737       89.68010
O         15.37631       49.88914       93.40429
H         15.64303       50.70617       93.89724
H         15.35141       49.17785       94.09143

Ca 1.0



