%chk=holoCaM.loop1.water2.frame107.chk
%nprocshared=20
%mem=10GB
%nosave
#b3lyp/svp scf=(tight,noincore,xqc) Test 
#IOP(5/87=12) Density=Current Pop=(MK,readradii) iop(6/33=2) iop(6/42=6)

holoCaM.loop1.water2.frame107 

   0  1 
C         75.38044        6.98545       14.50552
C         74.05181        7.19775       13.85401
O         73.06047        6.67961       14.34411
H         75.81801        7.96259       14.79534
H         75.27420        6.34919       15.41009
H         76.05563        6.47395       13.78769
N         73.95791        7.96202       12.73130
C         72.70588        8.15161       12.01202
C         72.26931        6.81582       11.42061
O         72.85774        6.36726       10.44615
C         72.90329        9.22924       10.92840
C         71.69595        9.41538       10.07406
O         71.78253        9.22855        8.87223
O         70.52223        9.78600       10.61812
H         74.81476        8.42003       12.38254
H         71.93820        8.52379       12.72932
H         73.75847        8.94368       10.27563
H         73.15119       10.19803       11.41503
N         71.30930        6.07596       12.04332
C         70.97370        4.71332       11.64201
C         70.06592        4.62291       10.42231
O         69.86184        3.50459        9.96844
C         70.29272        3.95226       12.81243
C         71.14974        3.80529       14.08672
C         72.47908        3.08986       13.80426
C         73.25345        2.77173       15.08558
N         74.52122        2.11579       14.76206
H         70.93015        6.44057       12.92620
H         71.91304        4.18383       11.38161
H         70.03675        2.92411       12.47476
H         69.34052        4.46112       13.08174
H         70.55861        3.20631       14.81419
H         71.34462        4.79265       14.55302
H         73.11762        3.73543       13.16549
H         72.27387        2.13559       13.27193
H         72.64250        2.09687       15.72578
H         73.45660        3.70878       15.64984
H         74.34651        1.23863       14.21880
H         75.12307        2.76032       14.19885
H         75.02111        1.87166       15.64663
N         69.42432        5.70312        9.88361
C         68.41850        5.55713        8.82000
C         68.61873        6.47311        7.60688
O         68.12601        6.11133        6.54697
C         66.99439        5.61127        9.41931
C         66.68715        6.86952       10.18208
O         67.58838        7.86316       10.23012
O         65.61567        6.98932       10.75227
H         69.56932        6.61772       10.32740
H         68.49723        4.53265        8.39324
H         66.90198        4.76672       10.13768
H         66.23857        5.46192        8.61788
N         69.34197        7.63112        7.65189
C         69.74136        8.37571        6.45643
C         69.18598        9.78847        6.34861
O         68.68779       10.13540        5.28727
H         69.69720        7.95956        8.55615
H         69.48223        7.82638        5.52470
H         70.84956        8.44476        6.47276
N         69.26111       10.66935        7.38361
C         68.85190       12.07716        7.30713
C         69.87433       13.01929        7.95004
O         69.59520       14.20839        8.02572
C         67.43679       12.27033        7.89278
C         67.18972       11.48358        9.13573
O         66.31891       10.62675        9.11623
O         67.95005       11.60658       10.23642
H         69.58145       10.31381        8.29212
H         68.76926       12.41457        6.24983
H         66.71394       11.89166        7.13495
H         67.20727       13.34591        8.04454
N         71.09934       12.59229        8.37305
C         72.11142       13.48399        8.91849
C         71.83854       13.97581       10.32649
O         72.69022       14.69352       10.83524
H         71.37997       11.61667        8.22677
H         72.26141       14.34272        8.22783
H         73.07203       12.92682        8.97101
N         70.72379       13.63183       11.03768
C         70.51226       14.03205       12.42829
C         70.35914       12.81477       13.32755
O         70.27639       11.69293       12.84145
C         69.29226       14.97901       12.56333
C         69.53264       16.33429       11.88308
O         68.11699       14.37334       12.08447
H         70.00580       13.04275       10.59687
H         71.40298       14.57947       12.80958
H         69.13433       15.21126       13.63852
H         68.13566       14.40035       11.09217
H         70.42131       16.82985       12.33019
H         69.69978       16.21236       10.79268
H         68.65187       16.99288       12.04101
N         70.37156       12.98066       14.67852
C         70.28424       11.90179       15.65490
C         69.10382       12.17317       16.57826
O         69.00796       13.25894       17.13649
C         71.64094       11.78011       16.41740
C         72.73914       11.31910       15.41339
C         71.53784       10.79125       17.59644
C         74.14000       11.17593       16.01021
H         70.49811       13.93669       15.04920
H         70.11896       10.92012       15.15901
H         71.90901       12.77407       16.83984
H         72.81134       12.05589       14.58569
H         72.45329       10.33664       14.97364
H         70.75799       11.11257       18.31587
H         71.30484        9.77049       17.23665
H         72.48303       10.75962       18.17369
H         74.17351       10.38366       16.78532
H         74.84740       10.87508       15.20783
H         74.47715       12.14033       16.44270
N         68.19669       11.18715       16.82505
C         67.05093       11.31143       17.71991
C         67.34142       10.59972       19.03095
O         68.42949       10.07058       19.20073
C         65.77552       10.73118       17.04193
C         65.37958       11.51239       15.78487
O         65.92723        9.35684       16.76780
H         68.36944       10.26409       16.41228
H         66.86720       12.37835       17.97612
H         64.90899       10.82749       17.72671
H         66.39676        9.25431       15.90042
H         66.19706       11.47370       15.04019
H         64.46151       11.07037       15.34078
H         65.17142       12.57212       16.04189
N         66.40482       10.56646       20.01813
C         66.59583        9.90763       21.31053
C         66.93979        8.43670       21.13592
O         67.90972        7.98512       21.72670
C         65.33962       10.06741       22.20361
C         65.11830       11.53597       22.59627
O         64.20490        9.56869       21.54146
H         65.50324       11.03011       19.83563
H         67.44377       10.38784       21.85029
H         65.51374        9.48770       23.14004
H         63.48607        9.48411       22.22052
H         64.23819       11.61825       23.26761
H         66.00699       11.92130       23.14042
H         64.93919       12.17713       21.70899
N         66.20268        7.63895       20.31683
C         66.51423        6.23289       20.06213
C         67.90867        6.09052       19.47482
O         68.70270        5.34345       20.03116
C         65.46612        5.61466       19.10183
C         64.14517        5.20827       19.79361
C         63.45496        6.31017       20.60949
C         62.17440        5.78207       21.27033
N         61.59197        6.78836       22.15767
H         65.40664        8.06739       19.82237
H         66.48996        5.64974       21.01069
H         65.86878        4.66636       18.68009
H         65.28617        6.30259       18.24620
H         64.37225        4.36950       20.48823
H         63.44924        4.82632       19.01438
H         63.20792        7.17753       19.96033
H         64.13869        6.63535       21.42118
H         62.41084        4.87442       21.87007
H         61.43822        5.50082       20.48493
H         60.71817        6.40423       22.58434
H         62.26527        7.01694       22.92567
H         61.36066        7.65596       21.62231
N         68.27817        6.76672       18.35063
C         69.59092        6.59050       17.72196
C         70.74133        7.05400       18.61746
O         71.88374        6.75577       18.29678
C         69.67309        7.35506       16.37926
C         68.59034        6.92832       15.37059
C         68.62093        7.76853       14.12463
O         68.70744        7.24198       13.02965
O         68.48465        9.10437       14.20137
H         67.58573        7.39959       17.92684
H         69.72092        5.50386       17.51803
H         70.67391        7.20092       15.91779
H         69.55929        8.43156       16.60116
H         67.58178        7.05817       15.80336
H         68.72176        5.85445       15.11788
N         70.52967        7.81422       19.72819
C         71.60160        8.27896       20.58047
H         72.32734        8.87842       19.99209
H         71.18696        8.92359       21.38653
H         72.11689        7.41459       21.04809
H         69.58056        8.10305       19.97462
Ca        67.53104        9.76208       11.41021
O         65.23833        9.14046       13.43687
H         65.65803        8.50048       12.81136
H         64.39106        9.40006       12.99619
O         66.02796       12.01220       12.59583
H         66.97530       12.17556       12.83541
H         65.91763       12.42053       11.70203

Ca 1.0



