%chk=holoCaM.loop1.water2.frame141.chk
%nprocshared=20
%mem=10GB
%nosave
#b3lyp/svp scf=(tight,noincore,xqc) Test 
#IOP(5/87=12) Density=Current Pop=(MK,readradii) iop(6/33=2) iop(6/42=6)

holoCaM.loop1.water2.frame141 

   0  1 
C          2.27878       74.16907       -5.20988
C          2.45667       72.70404       -5.47568
O          1.83254       72.19050       -6.39326
H          1.21659       74.37652       -4.96637
H          2.91007       74.50556       -4.36038
H          2.56923       74.74630       -6.11270
N          3.31465       71.96640       -4.71775
C          3.56224       70.55185       -4.95576
C          2.28928       69.72940       -4.73667
O          1.80651       69.61393       -3.61970
C          4.72936       70.08742       -4.07093
C          5.04131       68.64072       -4.23344
O          5.35086       68.18660       -5.32286
O          4.99818       67.84335       -3.15355
H          3.84142       72.44467       -3.97019
H          3.89814       70.44544       -6.01326
H          4.48818       70.28165       -3.00368
H          5.63730       70.67276       -4.33686
N          1.67334       69.18542       -5.81953
C          0.40571       68.46057       -5.82209
C          0.48765       67.07788       -5.17942
O         -0.37162       66.78458       -4.36000
C         -0.10632       68.37932       -7.28418
C         -1.51729       67.78505       -7.44028
C         -2.06128       67.91756       -8.88071
C         -2.37203       69.37845       -9.27431
N         -2.94452       69.45949      -10.61796
H          2.09074       69.40767       -6.72894
H         -0.35373       69.07307       -5.28460
H          0.58930       67.79367       -7.91763
H         -0.12084       69.42486       -7.65089
H         -2.22987       68.28275       -6.74805
H         -1.46887       66.70675       -7.17415
H         -3.01262       67.34526       -8.93874
H         -1.34355       67.46736       -9.60138
H         -1.45567       70.00270       -9.25152
H         -3.09980       69.80194       -8.54630
H         -2.25727       69.10677      -11.32286
H         -3.82819       68.90301      -10.67146
H         -3.16426       70.45944      -10.83402
N          1.44727       66.16224       -5.52581
C          1.39713       64.75307       -5.10293
C          2.40231       64.35573       -4.02810
O          2.23615       63.27734       -3.47415
C          1.48701       63.82345       -6.33818
C          2.81818       63.85512       -7.05897
O          3.85537       64.56938       -6.58165
O          2.94041       63.26481       -8.12000
H          2.19351       66.46721       -6.15866
H          0.40659       64.57073       -4.63275
H          0.69459       64.14095       -7.05153
H          1.28245       62.77190       -6.04482
N          3.45273       65.14376       -3.66824
C          4.31882       64.84162       -2.53243
C          5.70388       64.38633       -2.93920
O          6.14016       63.35668       -2.44328
H          3.62764       66.01064       -4.19342
H          3.87632       64.05594       -1.88054
H          4.38759       65.74949       -1.89952
N          6.44917       65.07962       -3.84491
C          7.79337       64.67389       -4.25779
C          8.80338       65.82663       -4.24860
O          9.95107       65.59000       -4.60046
C          7.72191       63.95958       -5.62297
C          7.20042       64.77586       -6.77182
O          7.08354       64.25049       -7.86603
O          6.84845       66.06397       -6.62053
H          6.01140       65.87915       -4.31512
H          8.19153       63.90818       -3.55498
H          7.05465       63.07735       -5.50565
H          8.73372       63.58343       -5.88872
N          8.47536       67.08339       -3.82549
C          9.42783       68.18228       -3.74257
C          9.86144       68.77686       -5.07256
O         10.62123       69.73469       -5.02666
H          7.53256       67.27009       -3.46361
H         10.31594       67.85908       -3.15661
H          8.94512       69.01313       -3.18241
N          9.42562       68.31200       -6.28142
C          9.78456       68.93420       -7.55911
C          8.53368       69.41448       -8.29027
O          7.43124       69.14393       -7.83074
C         10.61364       67.95277       -8.41906
C         11.94575       67.61319       -7.73758
O          9.88213       66.77502       -8.63737
H          8.80496       67.49562       -6.31111
H         10.40473       69.84117       -7.38521
H         10.83907       68.44433       -9.39332
H         10.32415       66.29436       -9.38529
H         12.53770       68.53835       -7.57038
H         11.77683       67.11048       -6.76172
H         12.53908       66.93298       -8.38468
N          8.63974       70.20374       -9.40397
C          7.48995       70.79641      -10.08943
C          7.52692       70.46730      -11.58364
O          8.42672       70.91987      -12.27848
C          7.49699       72.34288       -9.86044
C          7.44065       72.73297       -8.35646
C          6.38145       73.06322      -10.63858
C          6.12936       72.39001       -7.63614
H          9.58197       70.46178       -9.73644
H          6.54309       70.39535       -9.66973
H          8.46457       72.73235      -10.24999
H          7.59006       73.83174       -8.27224
H          8.28250       72.25045       -7.81633
H          6.50928       72.91646      -11.72690
H          5.38040       72.68807      -10.34757
H          6.42729       74.15744      -10.45442
H          6.20089       72.71151       -6.57564
H          5.27160       72.92928       -8.08802
H          5.92499       71.30229       -7.65193
N          6.54877       69.69929      -12.14428
C          6.41147       69.44050      -13.57661
C          5.83759       70.66718      -14.27707
O          5.52905       71.64974      -13.62340
C          5.46029       68.23129      -13.84031
C          5.99213       66.92090      -13.23638
O          4.14731       68.51838      -13.41429
H          5.85535       69.29249      -11.52154
H          7.40631       69.17956      -13.99988
H          5.40673       68.03782      -14.93139
H          3.96207       68.05162      -12.56075
H          5.30528       66.08581      -13.49238
H          6.99828       66.68907      -13.64374
H          6.05334       66.99361      -12.13460
N          5.61411       70.65228      -15.61849
C          4.93817       71.73373      -16.33329
C          3.51406       71.91879      -15.81693
O          3.13443       73.03936      -15.50762
C          4.91045       71.45538      -17.85887
C          6.32551       71.44879      -18.45255
O          4.27621       70.22971      -18.12448
H          5.90871       69.81936      -16.14763
H          5.49421       72.68803      -16.18985
H          4.34164       72.28597      -18.34025
H          4.01492       70.23978      -19.08205
H          6.27202       71.29008      -19.54993
H          6.82224       72.42436      -18.26454
H          6.94738       70.64101      -18.01478
N          2.67632       70.85006      -15.69826
C          1.27594       70.94128      -15.28121
C          1.13414       71.61254      -13.92646
O          0.37794       72.56684      -13.81064
C          0.62345       69.53633      -15.24606
C          0.57045       68.90266      -16.64865
C         -0.16807       67.55735      -16.64711
C         -0.21647       66.90657      -18.04347
N         -0.92875       67.73042      -19.02421
H          3.06563       69.92089      -15.91228
H          0.71045       71.54975      -16.02232
H         -0.42202       69.64407      -14.87994
H          1.17023       68.86882      -14.54257
H          1.59428       68.73893      -17.04386
H          0.03858       69.61134      -17.31505
H         -1.20572       67.70015      -16.27455
H          0.35534       66.85726      -15.95909
H         -0.73914       65.92897      -17.95003
H          0.81649       66.70711      -18.40600
H         -1.88590       67.96570      -18.67473
H         -0.39716       68.60554      -19.23096
H         -1.01710       67.19576      -19.91808
N          1.85277       71.17089      -12.86266
C          1.77702       71.74718      -11.52070
C          2.08382       73.23348      -11.54594
O          1.25654       74.01244      -11.09120
C          2.74886       70.99659      -10.58201
C          2.26867       69.55217      -10.36529
C          3.26168       68.71485       -9.62228
O          4.34306       68.44983      -10.10217
O          2.93505       68.16615       -8.45730
H          2.50422       70.39322      -13.03311
H          0.74535       71.62382      -11.11757
H          2.79682       71.49658       -9.58853
H          3.76613       71.00917      -11.03127
H          2.08040       69.03702      -11.32774
H          1.30650       69.58196       -9.80881
N          3.23808       73.70564      -12.08399
C          3.54273       75.11904      -12.13363
H          4.51570       75.27904      -12.64444
H          2.75288       75.65996      -12.69844
H          3.60757       75.52866      -11.10341
H          3.91209       73.04507      -12.48688
Ca         4.16480       66.50579       -7.63430
O          4.73569       65.00673      -10.45493
H          3.88951       65.40015      -10.12532
H          4.51104       64.65871      -11.35389
O          7.41591       66.55487      -10.09127
H          7.22852       66.81505       -9.15594
H          7.58759       65.58092      -10.05238

Ca 1.0



