%chk=holoCaM-CaMKII.loop1.water2.frame49.chk
%nprocshared=20
%mem=10GB
%nosave
#b3lyp/svp scf=(tight,noincore,xqc) Test 
#IOP(5/87=12) Density=Current Pop=(MK,readradii) iop(6/33=2) iop(6/42=6)

holoCaM-CaMKII.loop1.water2.frame49 

   0  1 
C          0.49741       57.30723      102.35544
C         -0.69100       58.11825      102.78937
O         -1.23472       57.85478      103.84947
H          1.30821       57.39398      103.10777
H          0.20282       56.24202      102.25071
H          0.89046       57.65480      101.37553
N         -1.14828       59.13097      102.00641
C         -2.30695       59.96226      102.32598
C         -3.56512       59.11046      102.40421
O         -3.88963       58.42826      101.44243
C         -2.40501       61.06619      101.25756
C         -3.53042       62.05170      101.39183
O         -4.25934       62.23186      100.43005
O         -3.64532       62.87584      102.45483
H         -0.63537       59.32127      101.13076
H         -2.13949       60.46521      103.29545
H         -2.47301       60.58702      100.25536
H         -1.46104       61.65305      101.28845
N         -4.32504       59.11973      103.53769
C         -5.53518       58.32570      103.72981
C         -6.77829       59.21313      103.75619
O         -7.85745       58.68850      103.99463
C         -5.44597       57.58209      105.09339
C         -4.17458       56.76153      105.39741
C         -4.00062       55.39621      104.70795
C         -3.76535       55.44106      103.19438
N         -3.42143       54.11359      102.68575
H         -4.04511       59.74198      104.31018
H         -5.68402       57.61578      102.89916
H         -6.34136       56.94257      105.25505
H         -5.46601       58.37634      105.87531
H         -4.22314       56.52551      106.48456
H         -3.27399       57.39018      105.25499
H         -4.87132       54.74364      104.93599
H         -3.09947       54.93398      105.16948
H         -2.93223       56.13686      102.96593
H         -4.67697       55.78308      102.67640
H         -2.53400       53.77844      103.12712
H         -4.19343       53.43750      102.88776
H         -3.28017       54.17033      101.65138
N         -6.70408       60.56351      103.55578
C         -7.82724       61.47528      103.76416
C         -8.15281       62.30836      102.53320
O         -9.11926       63.05758      102.58580
C         -7.42408       62.45554      104.88481
C         -6.89271       61.73779      106.09508
O         -5.55637       61.66405      106.28751
O         -7.64991       61.13959      106.84192
H         -5.79865       60.98809      103.32575
H         -8.73568       60.90882      104.06298
H         -8.24617       63.14851      105.16638
H         -6.60425       63.08724      104.48395
N         -7.35498       62.30872      101.42694
C         -7.54123       63.22597      100.31676
C         -7.47338       64.66136      100.79245
O         -8.39722       65.41743      100.52934
H         -6.54014       61.68481      101.37702
H         -8.50891       63.02529       99.80892
H         -6.72529       63.06520       99.57853
N         -6.40710       65.09202      101.52564
C         -6.25537       66.45764      102.02228
C         -4.99310       67.11963      101.46788
O         -4.69203       68.23600      101.86762
C         -6.33209       66.47615      103.56996
C         -5.24641       65.75656      104.32156
O         -4.32284       65.21267      103.74516
O         -5.29646       65.72075      105.66608
H         -5.66884       64.41055      101.75229
H         -7.10847       67.08816      101.68836
H         -7.30432       66.02488      103.86694
H         -6.33220       67.53229      103.91644
N         -4.24801       66.52393      100.48746
C         -3.10413       67.15083       99.84299
C         -1.83276       67.16589      100.66549
O         -0.83141       67.62795      100.13493
H         -4.54964       65.62247      100.09307
H         -3.37494       68.17866       99.51600
H         -2.86370       66.56468       98.92969
N         -1.76726       66.68186      101.93839
C         -0.53254       66.64650      102.71915
C         -0.24374       65.24570      103.23724
O         -1.10272       64.37498      103.16865
C         -0.61234       67.65281      103.89466
C         -0.53679       69.10755      103.41695
O         -1.77179       67.44658      104.66274
H         -2.62173       66.32717      102.38278
H          0.33672       66.92336      102.08276
H          0.26766       67.50968      104.55862
H         -2.54917       67.82549      104.17347
H         -0.57860       69.78729      104.29477
H          0.42369       69.27900      102.88633
H         -1.37747       69.34957      102.73396
N          0.98932       64.96232      103.75102
C          1.36462       63.67602      104.32722
C          1.86960       63.92936      105.74184
O          2.91822       64.54274      105.89699
C          2.42373       62.96366      103.42183
C          1.78374       62.62226      102.04605
C          2.98016       61.69065      104.09162
C          2.74595       61.99805      101.03100
H          1.71049       65.70122      103.72735
H          0.48039       63.01091      104.38378
H          3.27832       63.65945      103.26384
H          1.39139       63.55270      101.58429
H          0.93053       61.92404      102.19587
H          2.17508       60.94692      104.25833
H          3.77719       61.22853      103.47509
H          3.45976       61.93341      105.05995
H          3.60069       62.67942      100.83749
H          3.12424       61.01372      101.37291
H          2.20676       61.82529      100.07504
N          1.15087       63.51357      106.82682
C          1.59648       63.72610      108.20815
C          2.80361       62.85570      108.52199
O          3.23678       62.10445      107.66629
C          0.46888       63.43662      109.24150
C         -0.76229       64.32405      109.04673
O          0.11128       62.07865      109.26043
H          0.24156       63.06545      106.65575
H          1.87462       64.79715      108.32802
H          0.84745       63.68867      110.25317
H         -0.43156       61.89751      108.45324
H         -1.25579       64.07933      108.09023
H         -1.48961       64.14219      109.86480
H         -0.47473       65.39727      109.05801
N          3.40132       62.90182      109.74507
C          4.54280       62.06095      110.09449
C          4.13388       60.58400      110.09983
O          4.78252       59.78802      109.43643
C          5.13970       62.48349      111.46069
C          6.52947       61.86451      111.65934
O          5.28273       63.88161      111.49620
H          3.04602       63.57226      110.44193
H          5.33925       62.24068      109.33621
H          4.44308       62.15893      112.26975
H          5.26006       64.15031      112.45241
H          7.21728       62.22857      110.86247
H          6.94843       62.17828      112.63831
H          6.49210       60.75745      111.61997
N          3.02980       60.16728      110.79567
C          2.53396       58.78367      110.82098
C          2.34096       58.22945      109.42118
O          2.87349       57.16672      109.13256
C          1.18547       58.68780      111.58141
C          1.35406       58.82975      113.10189
C          0.00014       58.75727      113.82730
C          0.19447       58.72931      115.35123
N         -1.09017       58.75586      116.05116
H          2.48746       60.88633      111.29902
H          3.27041       58.12513      111.33361
H          0.74262       57.68037      111.40928
H          0.47299       59.44463      111.18253
H          1.84693       59.79219      113.35479
H          2.00057       57.99463      113.45182
H         -0.54818       57.83632      113.52803
H         -0.60871       59.64181      113.53824
H          0.79907       59.60533      115.67264
H          0.74525       57.80197      115.62898
H         -1.68663       57.94932      115.75545
H         -0.91954       58.69082      117.08104
H         -1.58563       59.65477      115.84977
N          1.60786       58.90328      108.49631
C          1.39614       58.42803      107.12858
C          2.72366       58.12112      106.45652
O          2.89844       57.00291      105.99207
C          0.57900       59.46809      106.33414
C         -0.87077       59.51703      106.85610
C         -1.70400       60.58584      106.21779
O         -1.18632       61.42762      105.30615
O         -2.86851       60.70992      106.55527
H          1.21732       59.81390      108.77670
H          0.81243       57.47945      107.14449
H          0.54739       59.18864      105.25962
H          1.06968       60.46334      106.41995
H         -0.88671       59.69896      107.94840
H         -1.35168       58.53317      106.66734
N          3.72449       59.03972      106.42754
C          5.04180       58.77771      105.88516
H          5.79368       58.87627      106.69747
H          5.12969       57.75748      105.45652
H          5.27053       59.51859      105.09267
H          3.56395       59.95688      106.85006
Ca        -4.19065       62.40785      104.61300
O         -4.20623       63.56964      108.04620
H         -4.94648       64.22694      108.05718
H         -3.76513       63.67966      108.92497
O         -2.34131       65.48234      106.40401
H         -2.87772       65.83212      107.15872
H         -1.43252       65.84424      106.56308

Ca 1.0



