%chk=holoCaM.loop3.water2.frame399.chk
%nprocshared=20
%mem=10GB
%nosave
#b3lyp/svp scf=(tight,noincore,xqc) Test 
#IOP(5/87=12) Density=Current Pop=(MK,readradii) iop(6/33=2) iop(6/42=6)

holoCaM.loop3.water2.frame399 

   0  1 
C         68.91052       73.20091       87.81644
C         68.85293       73.46820       89.28835
O         68.04758       72.85654       89.97693
H         68.69613       74.13700       87.26117
H         69.92382       72.83557       87.54581
H         68.16480       72.42952       87.52821
N         69.70980       74.36465       89.85041
C         69.73056       74.62185       91.28171
C         68.43499       75.28789       91.72043
O         68.11960       76.37686       91.26230
C         70.96237       75.45646       91.65937
C         71.19736       75.52311       93.14087
O         72.19007       76.09002       93.54798
O         70.37530       74.92358       94.02313
H         70.39983       74.83305       89.24202
H         69.85238       73.64111       91.78650
H         70.88188       76.48098       91.23466
H         71.86147       74.96615       91.22514
N         67.61990       74.63966       92.59224
C         66.30230       75.10791       93.01351
C         66.33370       76.42095       93.80852
O         65.27048       77.00077       93.98067
C         65.65164       73.95326       93.82262
C         64.20657       74.14160       94.29873
C         63.74905       72.86229       95.02367
C         62.34320       72.99980       95.61644
N         61.95523       71.77289       96.31509
H         67.93047       73.71309       92.91103
H         65.70472       75.27709       92.09032
H         66.28796       73.75112       94.71347
H         65.66963       73.04659       93.17472
H         63.54046       74.33975       93.43086
H         64.15507       74.99505       95.00561
H         64.45615       72.64140       95.85372
H         63.76551       72.00686       94.31130
H         61.61041       73.21231       94.80716
H         62.33276       73.84748       96.33683
H         61.91658       70.97196       95.64331
H         62.64034       71.55764       97.07624
H         61.01001       71.90325       96.74214
N         67.47600       76.92626       94.36940
C         67.48220       78.11409       95.23819
C         68.65846       79.06463       94.99838
O         68.73642       80.06920       95.69205
C         67.45192       77.64530       96.70423
C         68.61698       76.75996       97.01690
O         68.38046       75.45960       97.22194
O         69.75960       77.18294       96.99496
H         68.33464       76.36433       94.30760
H         66.55637       78.70915       95.08088
H         66.51734       77.05459       96.83735
H         67.41143       78.49823       97.41418
N         69.60770       78.82960       94.05164
C         70.73390       79.71498       93.80496
C         71.71914       79.78766       94.95584
O         72.13534       80.88259       95.30704
H         69.53373       78.00332       93.44401
H         70.37902       80.73088       93.52195
H         71.29655       79.30898       92.93596
N         72.21121       78.64547       95.51419
C         73.35346       78.60316       96.42547
C         74.53817       77.89517       95.75622
O         75.52585       77.63828       96.42936
C         73.00906       77.94573       97.79132
C         72.68860       76.46677       97.78060
N         72.80897       75.74477       98.91938
O         72.33784       75.90843       96.75526
H         71.80654       77.75389       95.20822
H         73.69464       79.63259       96.67230
H         72.19643       78.49361       98.31585
H         73.91864       78.06468       98.42116
H         73.12706       76.18603       99.79472
H         72.61589       74.73266       98.92047
N         74.53196       77.59104       94.42124
C         75.62401       76.90939       93.73938
C         75.73300       75.42005       94.04924
O         76.65248       74.79854       93.53550
H         73.75556       77.91397       93.82998
H         76.57638       77.43023       93.97797
H         75.46141       76.99172       92.64299
N         74.84764       74.77651       94.86155
C         74.92799       73.36696       95.24262
C         73.63389       72.63548       94.93298
O         72.56749       73.12724       95.27980
C         75.18937       73.28577       96.75458
C         76.58619       73.74192       97.08077
C         76.81119       74.94603       97.76230
C         77.68278       72.94692       96.70376
C         78.11665       75.35472       98.05347
C         78.98421       73.34824       97.00924
C         79.20610       74.55673       97.68375
O         80.45768       74.95756       97.98373
H         74.08651       75.31918       95.27902
H         75.75948       72.84311       94.72193
H         75.08732       72.24049       97.12082
H         74.42694       73.90136       97.27933
H         75.97878       75.57192       98.05673
H         77.52795       72.00799       96.18532
H         78.28109       76.29124       98.57015
H         79.81719       72.71842       96.72214
H         81.23497       74.42768       97.75527
N         73.67112       71.39803       94.35666
C         72.48939       70.58401       94.08900
C         72.53583       69.33961       94.96549
O         73.40720       68.50122       94.77420
C         72.44547       70.21921       92.57133
C         72.27934       71.50903       91.73226
C         71.32703       69.20886       92.24849
C         72.36912       71.28804       90.22165
H         74.59016       70.98778       94.12687
H         71.56310       71.14564       94.34565
H         73.41370       69.73658       92.30822
H         73.07851       72.23238       91.99931
H         71.30151       71.96876       91.97443
H         71.35957       68.89418       91.18737
H         71.45884       68.27717       92.82999
H         70.33259       69.64417       92.46187
H         72.26755       72.26458       89.70351
H         73.35294       70.84430       89.95996
H         71.55622       70.63262       89.85088
N         71.61399       69.15748       95.95722
C         71.53875       67.94415       96.76794
C         70.98295       66.79028       95.94485
O         70.61098       66.99982       94.79938
C         70.64534       68.18003       98.00616
O         69.33825       68.49916       97.61945
H         70.94200       69.91444       96.14087
H         72.55583       67.69650       97.14495
H         71.06863       69.01741       98.60327
H         70.63227       67.26641       98.64075
H         68.80772       68.57032       98.45528
N         70.86309       65.54179       96.46816
C         70.23276       64.43775       95.74858
C         68.76824       64.74496       95.47794
O         68.33006       64.62094       94.34529
C         70.33574       63.14230       96.55608
H         71.21550       65.37470       97.42506
H         70.76649       64.25979       94.78670
H         69.87326       62.30637       95.98744
H         71.40448       62.89384       96.72901
H         69.82351       63.23872       97.53649
N         67.96879       65.19068       96.49133
C         66.55232       65.52271       96.34090
C         66.32081       66.48192       95.19140
O         65.48072       66.20413       94.34514
C         66.02754       66.14444       97.64372
H         68.40439       65.33117       97.41527
H         65.97313       64.59297       96.14919
H         64.94642       66.38274       97.55160
H         66.15841       65.43256       98.48630
H         66.57843       67.07987       97.88462
N         67.06377       67.61330       95.07872
C         66.92242       68.57272       93.98840
C         67.11044       67.89228       92.64539
O         66.19872       67.93087       91.83113
C         67.94519       69.71406       94.15268
C         67.64218       70.55600       95.39406
C         68.66036       71.62801       95.59274
O         69.32889       71.72365       96.75407
O         68.82688       72.47975       94.73882
H         67.78619       67.77422       95.79409
H         65.89876       69.01238       94.01265
H         67.90680       70.38062       93.26161
H         68.96640       69.28592       94.23843
H         67.61223       69.93434       96.30915
H         66.64616       71.03471       95.27237
N         68.26235       67.23490       92.34988
C         68.46393       66.55761       91.08943
H         69.46780       66.08239       91.07449
H         67.69457       65.76698       90.95877
H         68.39902       67.28507       90.25329
H         69.01668       67.20274       93.04294
Ca        69.91095       73.83650       97.13677
O         69.75718       74.17261      100.00324
H         70.50233       74.71863      100.35724
H         69.11907       74.83636       99.64020
O         72.26080       72.17177       98.10799
H         71.64284       71.40488       98.02152
H         73.06482       71.79305       98.54224

Ca 1.0



