%chk=holoCaM-CaMKII.loop4.water1.frame396.chk
%nprocshared=20
%mem=10GB
%nosave
#b3lyp/svp scf=(tight,noincore,xqc) Test 
#IOP(5/87=12) Density=Current Pop=(MK,readradii) iop(6/33=2) iop(6/42=6)

holoCaM-CaMKII.loop4.water1.frame396 

   -3  1 
C         45.90011       83.08764       87.74311
C         46.80769       82.90547       88.91977
O         47.87388       82.32849       88.75700
H         44.98304       83.64755       88.02236
H         46.43729       83.66712       86.96168
H         45.61227       82.09827       87.33499
N         46.47387       83.41753       90.13703
C         47.39681       83.38296       91.26096
C         47.63465       81.96738       91.77694
O         46.84074       81.07985       91.49433
C         46.91184       84.34849       92.35450
C         47.97582       84.60244       93.35977
O         47.75148       84.47113       94.54968
O         49.19514       84.98026       92.93779
H         45.58446       83.93289       90.23114
H         48.36038       83.78030       90.86877
H         45.97122       83.99076       92.82986
H         46.70609       85.33140       91.87919
N         48.78390       81.67726       92.45744
C         49.19062       80.33819       92.86756
C         49.52434       80.29858       94.37402
O         49.76500       79.21492       94.88062
C         50.42298       79.88842       91.99039
C         50.17037       80.17478       90.47775
C         50.76099       78.39331       92.19267
C         51.35934       79.86117       89.56156
H         49.45406       82.43210       92.61069
H         48.35399       79.63117       92.67452
H         51.30398       80.49859       92.29150
H         49.97709       81.25952       90.34239
H         49.27936       79.61379       90.12224
H         51.65271       78.09703       91.60681
H         51.02778       78.15496       93.23636
H         49.90387       77.75774       91.88203
H         51.11835       80.17868       88.52469
H         52.26365       80.41304       89.89572
H         51.57819       78.77552       89.52590
N         49.57863       81.43011       95.15304
C         50.00005       81.42344       96.55755
C         48.90911       81.92792       97.49701
O         49.13147       81.92340       98.70140
C         51.23626       82.33649       96.73613
C         52.38526       81.98510       95.83173
O         52.26837       82.07537       94.61961
O         53.57049       81.62351       96.35781
H         49.36884       82.34896       94.74790
H         50.26820       80.39243       96.87564
H         51.58068       82.27001       97.79224
H         50.95248       83.39339       96.53478
N         47.72357       82.40823       97.03352
C         46.68812       82.96536       97.88430
C         47.14519       84.19742       98.63921
O         46.92234       84.27201       99.83851
H         47.52587       82.40082       96.02409
H         46.30151       82.19462       98.58512
H         45.84679       83.28226       97.22980
N         47.75933       85.22015       97.98047
C         48.06376       86.52170       98.58711
C         47.36710       87.66395       97.84269
O         47.26984       88.73887       98.41866
C         49.59108       86.76172       98.77360
C         50.41764       86.64063       97.52629
O         51.63233       86.75134       97.56622
O         49.81282       86.32715       96.38188
H         47.98251       85.05425       96.99419
H         47.63378       86.54415       99.61153
H         49.97180       85.99786       99.48384
H         49.75716       87.76588       99.22080
N         46.84549       87.52147       96.58477
C         46.04637       88.54104       95.92546
C         46.75726       89.22013       94.77977
O         46.10515       90.00386       94.10400
H         46.98675       86.65624       96.04964
H         45.73198       89.33847       96.63097
H         45.12037       88.05122       95.55065
N         48.08729       89.03219       94.52652
C         48.79536       89.74302       93.46367
C         49.40858       88.76924       92.47829
O         49.51824       87.59702       92.79110
C         49.80881       90.74094       94.07576
C         50.92045       90.13037       94.95807
C         51.92347       89.33792       94.16807
N         52.65361       89.93380       93.19899
O         52.09414       88.15431       94.41381
H         48.62806       88.39277       95.12418
H         48.07102       90.35275       92.88155
H         49.22441       91.43014       94.72434
H         50.26244       91.36017       93.27346
H         50.47530       89.50874       95.76387
H         51.47430       90.95581       95.45430
H         52.54344       90.93641       92.99053
H         53.33812       89.39173       92.65994
N         49.74179       89.17315       91.22075
C         50.24082       88.26536       90.19096
C         51.51568       88.82202       89.58723
O         51.47820       89.85024       88.92536
C         49.11311       88.02495       89.13541
C         49.60764       87.50676       87.77412
C         48.09280       87.01871       89.69990
H         49.56325       90.15439       90.95642
H         50.49983       87.27366       90.62599
H         48.60665       88.99311       88.92647
H         48.74522       87.36314       87.08816
H         50.27337       88.25041       87.28992
H         50.14046       86.54602       87.87221
H         48.58745       86.03531       89.86943
H         47.67066       87.36899       90.66306
H         47.25606       86.86015       88.98781
N         52.69219       88.15647       89.76719
C         53.93512       88.51906       89.09549
C         53.86530       88.12508       87.62488
O         52.88160       87.54183       87.19897
C         55.12332       87.78283       89.76357
C         55.31491       88.23228       91.18985
N         55.18215       87.36449       92.21955
O         55.59776       89.39959       91.41659
H         52.69991       87.33739       90.39106
H         54.10665       89.61440       89.18559
H         56.07204       87.99360       89.22990
H         54.94833       86.68614       89.71692
H         54.94649       86.37700       92.05162
H         55.30768       87.68443       93.19182
N         54.90957       88.39193       86.79445
C         54.98469       87.94452       85.40382
C         54.97270       86.42609       85.32731
O         54.19761       85.86520       84.56594
C         56.30054       88.45496       84.77682
C         56.49259       87.95731       83.36340
C         55.60853       88.33617       82.33986
C         57.56042       87.09387       83.06476
C         55.79387       87.86070       81.03765
C         57.74108       86.61733       81.76481
C         56.85873       87.00098       80.74533
O         57.02414       86.55033       79.48562
H         55.70788       88.91667       87.18290
H         54.13128       88.35934       84.82261
H         57.14756       88.10769       85.40963
H         56.31681       89.56574       84.78276
H         54.77861       88.99940       82.54868
H         58.24976       86.78118       83.83976
H         55.10843       88.16038       80.25506
H         58.56645       85.94945       81.55284
H         57.74921       85.95627       79.24397
N         55.83746       85.70995       86.09568
C         55.96170       84.25797       86.07600
C         54.61219       83.60779       86.29097
O         54.23417       82.72809       85.52980
C         56.96226       83.73316       87.14949
C         58.41782       84.22536       86.97330
C         58.75305       85.55635       87.60490
O         57.91506       86.15909       88.47144
O         59.85457       86.04495       87.41327
H         56.41634       86.24670       86.74114
H         56.34652       83.93932       85.08162
H         56.98946       82.63024       87.00204
H         56.61385       83.90933       88.19157
H         58.66206       84.22874       85.88930
H         59.10066       83.50094       87.46698
N         53.81772       84.03755       87.30228
C         52.50102       83.48652       87.59234
C         51.57341       83.63964       86.39550
O         50.95913       82.66235       85.99048
C         51.90013       84.14790       88.84886
C         52.83864       84.00902       90.06501
C         52.16015       84.43853       91.31503
O         51.10691       83.74033       91.73984
O         52.57208       85.37747       91.97415
H         54.17368       84.81571       87.87331
H         52.60241       82.40345       87.82981
H         50.93099       83.64060       89.06123
H         51.70619       85.22520       88.67861
H         53.74912       84.62381       89.93422
H         53.14324       82.94991       90.19671
N         51.46864       84.82993       85.74414
C         50.64192       85.01288       84.57057
H         49.57253       84.87693       84.83277
H         50.78392       86.03886       84.16600
H         50.93072       84.28654       83.78030
H         52.02849       85.62662       86.06506
Ca        50.65440       85.65479       94.46347
O         53.97076       85.29290       94.59231
H         53.82550       84.57920       95.26222
H         54.93611       85.23994       94.37898

Ca 1.0



