%chk=holoCaM-CaMKII.loop3.water2.frame95.chk
%nprocshared=20
%mem=10GB
%nosave
#b3lyp/svp scf=(tight,noincore,xqc) Test 
#IOP(5/87=12) Density=Current Pop=(MK,readradii) iop(6/33=2) iop(6/42=6)

holoCaM-CaMKII.loop3.water2.frame95 

   0  1 
C         24.60399       31.24782       45.94913
C         25.09112       30.02957       45.22566
O         24.68451       29.81333       44.09298
H         23.50205       31.19638       46.06504
H         25.06508       31.33134       46.95626
H         24.87338       32.15209       45.36446
N         25.95859       29.17438       45.83131
C         26.50354       27.99040       45.18840
C         25.89968       26.77821       45.84896
O         25.96321       26.67391       47.06717
C         28.03148       28.00736       45.31802
C         28.70596       26.90952       44.55774
O         30.04024       26.85970       44.56915
O         28.07859       26.08547       43.91395
H         26.23670       29.35822       46.80844
H         26.25285       27.98378       44.10322
H         28.32910       27.94337       46.38665
H         28.41950       28.96343       44.91913
N         25.26761       25.83063       45.09960
C         24.47706       24.76132       45.68967
C         25.17332       23.40804       45.64241
O         24.70565       22.49819       46.31283
C         23.09199       24.73417       44.99569
C         21.91482       24.41728       45.93191
C         21.32917       25.68039       46.61271
C         22.29362       26.47607       47.50595
N         21.64248       27.67272       48.03914
H         25.29462       25.91363       44.07610
H         24.36758       24.97513       46.77034
H         23.15150       24.00034       44.16171
H         22.85845       25.70839       44.50959
H         22.18195       23.61524       46.65225
H         21.08604       24.03361       45.29772
H         20.44906       25.37272       47.21721
H         20.96601       26.36262       45.81170
H         23.16600       26.81488       46.91200
H         22.64198       25.83298       48.34375
H         20.79728       27.41301       48.59644
H         22.31606       28.18361       48.65472
H         21.36654       28.30640       47.25291
N         26.30884       23.20687       44.90936
C         27.11619       21.99132       44.98593
C         28.54376       22.30514       45.45801
O         29.33989       21.38215       45.55830
C         27.05134       21.19257       43.66399
C         27.61378       21.85900       42.44460
O         27.57556       21.27026       41.37638
O         28.16312       23.08238       42.50565
H         26.64285       23.95763       44.29189
H         26.69220       21.29963       45.74635
H         25.98419       20.95179       43.46081
H         27.59181       20.23065       43.80312
N         28.91211       23.56643       45.85106
C         30.18487       23.88631       46.48387
C         31.42009       23.83273       45.60211
O         32.49595       24.04338       46.14494
H         28.22480       24.32995       45.82866
H         30.32364       23.19898       47.34695
H         30.12809       24.91949       46.89142
N         31.38227       23.55280       44.26685
C         32.60596       23.38538       43.47235
C         33.43095       24.66276       43.27196
O         34.52282       24.56490       42.73028
C         32.28507       22.72543       42.11232
C         31.56326       23.62265       41.13143
N         32.07530       23.84075       39.89751
O         30.50234       24.13942       41.43915
H         30.47049       23.36141       43.83158
H         33.23744       22.65510       44.02572
H         31.66489       21.82279       42.30154
H         33.23662       22.38095       41.65349
H         32.96211       23.40470       39.60617
H         31.57578       24.43665       39.22142
N         32.96586       25.88755       43.64432
C         33.68795       27.13776       43.46271
C         33.01184       28.06557       42.46904
O         33.50849       29.17232       42.30610
H         32.04399       25.95035       44.06977
H         34.72262       26.96358       43.09632
H         33.76254       27.64312       44.45016
N         31.93393       27.67995       41.71742
C         31.35522       28.51285       40.66424
C         29.85421       28.70364       40.85436
O         29.27528       28.07263       41.72695
C         31.59793       27.85033       39.29048
C         33.04959       27.67989       38.91352
C         33.87038       26.74521       39.57115
C         33.58585       28.43263       37.85631
C         35.19991       26.57199       39.17916
C         34.91728       28.26378       37.47093
C         35.72814       27.33277       38.12674
O         37.00733       27.17375       37.73306
H         31.54645       26.73192       41.83344
H         31.82394       29.52133       40.65893
H         31.09984       28.47318       38.51739
H         31.13471       26.84592       39.26674
H         33.48427       26.13296       40.37345
H         32.97337       29.15325       37.32874
H         35.81504       25.84136       39.68948
H         35.31556       28.85407       36.65592
H         37.59834       26.53259       38.15253
N         29.16012       29.56423       40.04538
C         27.71090       29.76798       40.09586
C         27.11936       29.48528       38.71596
O         27.59350       30.06400       37.74622
C         27.34727       31.23344       40.49792
C         28.09210       31.75904       41.75122
C         25.81751       31.37077       40.68073
C         27.86221       30.96029       43.02711
H         29.68976       30.11385       39.35046
H         27.25123       29.09424       40.85350
H         27.65176       31.91582       39.67328
H         27.77166       32.80789       41.93958
H         29.18318       31.77872       41.54611
H         25.44204       30.68563       41.47052
H         25.54461       32.41151       40.95326
H         25.28133       31.12407       39.74276
H         26.79402       30.94658       43.29677
H         28.22122       29.92762       42.89818
H         28.42423       31.42466       43.86450
N         26.03164       28.67696       38.56298
C         25.35901       28.45495       37.28180
C         23.98062       29.09026       37.29705
O         23.58654       29.65424       38.30523
C         25.23471       26.94583       37.00208
O         26.50171       26.37792       36.85005
H         25.61254       28.25588       39.40319
H         25.92108       28.92934       36.44770
H         24.66820       26.77509       36.06187
H         24.69238       26.46083       37.84643
H         26.36102       25.39754       36.78356
N         23.19380       29.05483       36.18593
C         21.84074       29.59927       36.14035
C         20.92383       28.84008       37.08148
O         20.26002       29.46567       37.89648
C         21.28619       29.52255       34.71502
H         23.57703       28.62273       35.33073
H         21.86212       30.67781       36.41786
H         20.26580       29.96153       34.68144
H         21.93762       30.10671       34.03019
H         21.24073       28.47252       34.35702
N         20.85590       27.47552       37.03159
C         19.98411       26.66940       37.88882
C         20.28260       26.78949       39.38210
O         19.55023       26.19162       40.15916
C         20.08278       25.19156       37.48543
H         21.43875       26.99098       36.33134
H         18.93598       27.00118       37.71972
H         21.11682       24.81566       37.64537
H         19.38092       24.57320       38.08569
H         19.81676       25.06992       36.41425
N         21.30251       27.55322       39.86638
C         21.57430       27.73691       41.28300
C         21.12380       29.13671       41.65547
O         20.25157       29.26455       42.50345
C         23.06438       27.44263       41.57587
C         23.41457       26.01359       41.11098
C         24.83374       25.61668       41.38386
O         25.07137       24.60601       42.02522
O         25.85218       26.32537       40.86949
H         21.91288       28.05975       39.21971
H         20.97387       27.02757       41.89631
H         23.25121       27.54594       42.66730
H         23.71156       28.17177       41.04011
H         23.26415       25.93884       40.01330
H         22.73497       25.28883       41.60994
N         21.60373       30.22689       40.99331
C         21.08827       31.56931       41.17332
H         20.26936       31.61464       41.92128
H         21.90637       32.24769       41.48759
H         20.67959       31.92819       40.20276
H         22.33491       30.10353       40.28544
Ca        27.95671       25.58103       41.15289
O         28.02709       23.56686       38.79267
H         28.13938       22.86542       39.47997
H         28.84369       23.49597       38.23806
O         28.89458       26.52695       38.59090
H         27.94175       26.70768       38.77474
H         28.92377       26.10754       37.69595

Ca 1.0



