%chk=holoCaM-CaMKII.loop1.water2.frame214.chk
%nprocshared=20
%mem=10GB
%nosave
#b3lyp/svp scf=(tight,noincore,xqc) Test 
#IOP(5/87=12) Density=Current Pop=(MK,readradii) iop(6/33=2) iop(6/42=6)

holoCaM-CaMKII.loop1.water2.frame214 

   0  1 
C         22.19450       61.84718       39.66538
C         21.49903       62.38896       40.87941
O         20.39712       62.89662       40.74717
H         23.19194       61.43114       39.92050
H         21.58011       61.04783       39.20253
H         22.33798       62.66907       38.93145
N         22.09031       62.32527       42.10417
C         21.49803       62.90241       43.30730
C         21.37227       64.40442       43.13224
O         22.38627       65.06754       42.96372
C         22.38712       62.56277       44.52313
C         22.00781       63.24563       45.81217
O         20.82595       63.03497       46.42946
O         22.82388       63.98219       46.33924
H         23.00936       61.86123       42.17509
H         20.49693       62.45165       43.46621
H         23.42999       62.86691       44.28185
H         22.38954       61.46414       44.67812
N         20.14641       65.00194       43.16350
C         19.93386       66.43100       42.98472
C         19.44824       67.04023       44.28182
O         20.05886       68.00354       44.72644
C         18.97379       66.73230       41.81296
C         19.41476       66.15227       40.44855
C         20.88387       66.40254       40.04968
C         21.28783       67.88327       39.99938
N         22.71132       68.01342       39.68274
H         19.32121       64.41734       43.33144
H         20.89226       66.93560       42.74675
H         18.90189       67.83721       41.71524
H         17.95194       66.35173       42.03348
H         18.74134       66.55633       39.66163
H         19.26305       65.05594       40.47148
H         21.06234       65.94294       39.05311
H         21.54353       65.87641       40.76316
H         21.10490       68.36693       40.98148
H         20.68083       68.41274       39.23399
H         22.91271       67.60496       38.74155
H         22.97396       69.02520       39.68070
H         23.28640       67.52249       40.40704
N         18.41715       66.49634       44.99897
C         18.04333       67.00753       46.32015
C         19.18197       66.91380       47.35358
O         19.00976       67.44325       48.44273
C         16.74781       66.34572       46.84719
C         16.82412       64.86500       47.09495
O         17.84304       64.23232       46.87071
O         15.73853       64.22865       47.57358
H         17.90023       65.69514       44.60583
H         17.80277       68.08681       46.19509
H         15.93023       66.52771       46.11654
H         16.46064       66.83779       47.80221
N         20.38847       66.33053       47.07109
C         21.55301       66.45225       47.93323
C         21.58675       65.52426       49.12595
O         22.56429       65.59813       49.85790
H         20.55365       65.89332       46.15713
H         21.66042       67.51061       48.25609
H         22.45676       66.22203       47.33218
N         20.60051       64.62270       49.40250
C         20.66660       63.75178       50.57765
C         21.83308       62.75631       50.55717
O         22.10974       62.19138       51.60595
C         19.31749       63.04452       50.84556
C         18.74809       62.31416       49.66216
O         19.37592       61.43381       49.10981
O         17.51935       62.62641       49.21335
H         19.77096       64.58763       48.79422
H         20.84698       64.40695       51.45922
H         18.57336       63.81346       51.14369
H         19.43248       62.33972       51.69713
N         22.55604       62.48150       49.43296
C         23.72644       61.60866       49.42180
C         23.47883       60.28059       48.74080
O         24.42755       59.51768       48.61274
H         22.27277       62.89744       48.54056
H         24.07047       61.37441       50.45188
H         24.55481       62.14686       48.91271
N         22.23297       59.89706       48.34555
C         21.92655       58.59160       47.77261
C         21.24265       58.75606       46.42369
O         20.88873       59.86840       46.06674
C         21.05763       57.78026       48.77133
C         21.81297       57.49554       50.08441
O         19.84274       58.43748       49.03649
H         21.44927       60.53833       48.49575
H         22.86451       58.02206       47.59295
H         20.81252       56.79286       48.32649
H         19.99909       59.12003       49.74040
H         21.16627       56.91215       50.77403
H         22.73466       56.91275       49.88032
H         22.09643       58.44089       50.59695
N         21.07563       57.69241       45.59069
C         20.47248       57.78184       44.25977
C         19.29501       56.82124       44.19199
O         19.45700       55.64826       44.50364
C         21.54819       57.50133       43.16346
C         22.63151       58.61750       43.21305
C         20.90404       57.44698       41.75955
C         23.81470       58.40220       42.26675
H         21.43648       56.77344       45.89434
H         20.09126       58.80842       44.05702
H         22.02083       56.51537       43.36802
H         23.05470       58.67952       44.23728
H         22.16203       59.59744       42.97604
H         20.14336       56.64216       41.70497
H         20.41931       58.41507       41.50893
H         21.65300       57.20917       40.97843
H         24.32681       57.44692       42.50610
H         23.50227       58.40192       41.20367
H         24.53984       59.23444       42.39520
N         18.08350       57.25572       43.74018
C         16.89102       56.41674       43.64365
C         16.64026       56.01475       42.20123
O         17.40192       56.39529       41.32883
C         15.66084       57.18168       44.20427
C         15.84338       57.52534       45.68978
O         15.42017       58.32712       43.41324
H         18.01159       58.22428       43.39836
H         17.03140       55.47290       44.21560
H         14.75724       56.54066       44.14594
H         15.34579       59.13492       43.98413
H         16.71803       58.19075       45.81315
H         14.93936       58.04932       46.06948
H         15.98992       56.60051       46.28555
N         15.58089       55.22153       41.88399
C         15.23956       54.81782       40.52006
C         14.93310       56.03116       39.65372
O         15.52554       56.17256       38.59366
C         14.02780       53.84761       40.52086
C         14.38146       52.51581       41.19679
O         12.92876       54.43524       41.17113
H         14.98242       54.89464       42.65646
H         16.09693       54.27181       40.06445
H         13.76364       53.63313       39.45902
H         12.13494       53.87533       40.96849
H         14.65530       52.65932       42.26224
H         13.51067       51.82864       41.15063
H         15.23221       52.03565       40.66859
N         14.02162       56.95502       40.06423
C         13.64196       58.14414       39.30324
C         14.86009       58.96786       38.93289
O         15.01650       59.31788       37.77130
C         12.61428       58.94648       40.13870
C         12.08861       60.21904       39.45378
C         10.81188       60.76242       40.12848
C         10.97471       61.14146       41.61017
N          9.70197       61.61024       42.16308
H         13.58769       56.81408       40.98919
H         13.13509       57.83483       38.36225
H         13.04886       59.21591       41.12671
H         11.75232       58.26412       40.30865
H         11.80897       59.97480       38.40643
H         12.88634       60.99371       39.43055
H         10.01856       59.98713       40.04678
H         10.47241       61.65828       39.56431
H         11.74167       61.94006       41.71180
H         11.30417       60.25740       42.19700
H          9.83020       61.85188       43.17223
H          9.37278       62.45952       41.64929
H          8.97955       60.85625       42.09062
N         15.78330       59.27979       39.87425
C         16.97519       60.07866       39.60932
C         17.85673       59.44229       38.54310
O         18.16808       60.11532       37.57032
C         17.72589       60.34720       40.92920
C         16.80921       61.17387       41.85816
C         17.48261       61.62295       43.10429
O         17.95395       60.75254       44.00967
O         17.57900       62.81654       43.32651
H         15.62220       58.91931       40.82562
H         16.66692       61.07601       39.22197
H         18.64085       60.93697       40.70860
H         18.03630       59.39536       41.41055
H         15.90387       60.61169       42.15011
H         16.48022       62.08203       41.30671
N         18.25215       58.14341       38.62841
C         19.03854       57.47142       37.61128
H         19.95835       57.05191       38.06867
H         18.44323       56.63828       37.17922
H         19.33421       58.14958       36.78339
H         17.94982       57.58600       39.42966
Ca        19.14223       61.84851       45.55095
O         15.60984       61.22261       46.02526
H         15.35142       61.72318       46.83895
H         14.99969       61.55797       45.32166
O         17.34587       59.70004       47.90402
H         17.88498       58.92966       47.59700
H         16.80521       59.34159       48.65141

Ca 1.0



