%chk=holoCaM.loop1.water2.frame151.chk
%nprocshared=20
%mem=10GB
%nosave
#b3lyp/svp scf=(tight,noincore,xqc) Test 
#IOP(5/87=12) Density=Current Pop=(MK,readradii) iop(6/33=2) iop(6/42=6)

holoCaM.loop1.water2.frame151 

   0  1 
C        -12.66560       50.90432       14.96674
C        -12.32390       49.50540       14.54051
O        -13.16258       48.84150       13.94855
H        -13.54232       50.87739       15.64757
H        -11.82158       51.37961       15.51167
H        -12.90634       51.52364       14.07894
N        -11.09839       48.98602       14.82363
C        -10.70589       47.61846       14.50303
C        -11.62177       46.64325       15.23200
O        -11.79056       46.76652       16.43704
C         -9.22560       47.42436       14.87574
C         -8.72525       46.04701       14.58386
O         -8.79249       45.58454       13.45597
O         -8.16267       45.33169       15.57389
H        -10.41664       49.59178       15.30747
H        -10.78575       47.46387       13.40236
H         -9.07075       47.64303       15.95417
H         -8.61764       48.14132       14.28088
N        -12.26733       45.66459       14.53541
C        -13.30483       44.80108       15.08901
C        -12.85796       43.34228       15.21668
O        -13.59819       42.59339       15.83883
C        -14.58179       44.97419       14.21167
C        -15.84180       44.24043       14.70835
C        -17.06995       44.58060       13.84178
C        -18.32752       43.85946       14.35551
N        -19.51052       44.22917       13.57648
H        -12.03486       45.56026       13.54729
H        -13.54280       45.13992       16.12102
H        -14.36612       44.64124       13.17282
H        -14.81648       46.06177       14.17818
H        -16.04848       44.54870       15.75554
H        -15.68208       43.14302       14.67310
H        -16.88428       44.28388       12.78526
H        -17.24593       45.67817       13.87463
H        -18.50035       44.13072       15.42049
H        -18.17629       42.75859       14.29425
H        -20.34277       43.72240       13.95722
H        -19.68377       45.25806       13.65199
H        -19.38395       43.96468       12.57273
N        -11.68344       42.85374       14.69624
C        -11.26811       41.45345       14.88453
C         -9.88062       41.28074       15.49958
O         -9.58324       40.15258       15.86939
C        -11.33966       40.66425       13.55946
C        -10.42045       41.23170       12.52151
O         -9.22315       41.34179       12.72440
O        -10.94299       41.72928       11.40221
H        -11.09093       43.47273       14.12594
H        -11.97150       40.95246       15.58412
H        -12.38622       40.70205       13.18270
H        -11.07706       39.59884       13.72833
N         -8.96073       42.29070       15.59521
C         -7.63617       42.08490       16.18088
C         -6.46488       42.24281       15.21960
O         -5.37431       41.86235       15.62192
H         -9.20193       43.22242       15.24599
H         -7.55471       41.05016       16.57539
H         -7.49764       42.76269       17.04928
N         -6.57310       42.77736       13.96476
C         -5.45344       42.79482       13.01049
C         -4.84178       44.17789       12.78880
O         -3.90385       44.28197       12.01008
C         -5.88746       42.12575       11.68629
C         -6.95147       42.85870       10.90794
O         -7.36605       42.37539        9.86697
O         -7.44559       44.03909       11.32677
H         -7.47624       43.16999       13.66846
H         -4.61608       42.17825       13.40357
H         -6.26338       41.10617       11.92131
H         -5.00031       42.01679       11.02523
N         -5.27692       45.27153       13.47084
C         -4.68609       46.59589       13.35551
C         -4.81834       47.18351       11.97229
O         -3.85970       47.77103       11.49736
H         -6.04766       45.17074       14.14111
H         -3.61855       46.57867       13.67091
H         -5.22822       47.27194       14.05047
N         -6.00936       47.13272       11.31438
C         -6.28794       47.76044       10.01526
C         -7.79873       47.79113        9.73735
O         -8.58201       47.21678       10.48430
C         -5.54763       47.08931        8.80536
C         -4.03829       47.34188        8.68519
O         -5.81581       45.71387        8.74221
H         -6.77581       46.66362       11.81780
H         -5.99308       48.83114       10.08173
H         -5.94590       47.55189        7.87861
H         -5.33918       45.28276        9.49883
H         -3.45522       46.80185        9.45161
H         -3.67965       46.95950        7.70570
H         -3.82736       48.43280        8.72553
N         -8.27611       48.51838        8.68643
C         -9.69159       48.72269        8.40107
C        -10.04838       48.21452        7.00669
O         -9.41801       48.58960        6.02817
C        -10.03413       50.23491        8.57842
C         -9.91914       50.68504       10.06551
C        -11.41900       50.61110        8.01859
C        -10.95066       50.06517       11.02789
H         -7.60377       49.01886        8.08521
H        -10.32422       48.17171        9.11700
H         -9.29638       50.82115        7.98713
H        -10.05128       51.78775       10.10911
H         -8.90093       50.45781       10.44565
H        -11.61698       51.69299        8.16951
H        -11.46516       50.42160        6.92664
H        -12.22058       50.02929        8.50404
H        -11.98795       50.32576       10.73200
H        -10.85873       48.96290       11.09182
H        -10.79073       50.47010       12.04880
N        -11.16601       47.44708        6.86628
C        -11.80078       47.05339        5.61665
C        -13.10028       47.83862        5.50335
O        -13.37809       48.65140        6.36838
C        -12.10326       45.52784        5.61198
C        -10.84388       44.66023        5.53708
O        -12.90237       45.17595        6.71508
H        -11.70760       47.24071        7.70762
H        -11.16866       47.31092        4.73953
H        -12.67546       45.26765        4.69839
H        -12.31143       45.01689        7.49660
H        -10.20566       44.82848        6.41931
H        -11.13349       43.58733        5.50558
H        -10.26840       44.89571        4.61799
N        -13.94634       47.66762        4.45684
C        -15.20722       48.39929        4.33282
C        -16.17250       48.07926        5.47163
O        -16.72194       49.01296        6.04076
C        -15.86310       48.14735        2.96030
C        -14.98401       48.71969        1.83512
O        -16.08053       46.77390        2.76778
H        -13.67675       47.00288        3.71739
H        -15.00079       49.49423        4.37201
H        -16.83692       48.69015        2.94452
H        -16.64568       46.68560        1.95679
H        -13.99130       48.22523        1.79930
H        -15.48166       48.58234        0.85382
H        -14.82738       49.80943        1.99306
N        -16.41141       46.79515        5.87859
C        -17.35256       46.44733        6.95603
C        -17.01596       47.05352        8.32498
O        -17.79596       46.87054        9.24937
C        -17.50818       44.90895        7.06140
C        -16.25651       44.16235        7.56813
C        -16.46639       42.64182        7.46114
C        -15.31444       41.79808        8.03752
N        -14.03173       42.06840        7.38894
H        -15.92558       46.03688        5.37719
H        -18.34652       46.84780        6.65793
H        -17.78019       44.53317        6.05093
H        -18.35283       44.66942        7.74554
H        -16.06227       44.44287        8.62587
H        -15.37924       44.44272        6.95438
H        -16.60715       42.37614        6.39015
H        -17.39005       42.36029        8.01201
H        -15.57370       40.72617        7.88752
H        -15.22031       41.97735        9.13115
H        -13.69601       43.01747        7.65793
H        -13.32719       41.37285        7.72492
H        -14.11652       41.99164        6.34949
N        -15.89414       47.79849        8.52306
C        -15.50399       48.41559        9.78267
C        -15.58259       49.92808        9.64359
O        -16.18661       50.57025       10.49102
C        -14.08084       47.95131       10.14397
C        -14.00823       46.42165       10.15783
C        -12.63508       45.91764       10.42462
O        -11.69685       46.21741        9.71643
O        -12.43881       45.03405       11.38959
H        -15.24127       47.92377        7.74847
H        -16.17852       48.10637       10.61293
H        -13.78487       48.36130       11.13499
H        -13.36753       48.31954        9.38055
H        -14.28712       46.02489        9.16063
H        -14.71416       46.00911       10.91196
N        -15.05058       50.56144        8.56025
C        -15.16131       51.98525        8.34243
H        -16.23040       52.28708        8.33624
H        -14.61252       52.53477        9.13319
H        -14.72318       52.24597        7.35338
H        -14.58496       50.01779        7.83040
Ca       -10.55510       43.88961       11.22534
O         -8.46615       45.19072        8.06524
H         -7.93539       44.78318        7.33497
H         -8.23610       44.65983        8.86603
O        -10.89004       42.51483        8.51539
H        -10.49463       42.51735        7.60955
H        -10.62637       41.63725        8.88848

Ca 1.0



