%chk=holoCaM.loop1.water2.frame462.chk
%nprocshared=20
%mem=10GB
%nosave
#b3lyp/svp scf=(tight,noincore,xqc) Test 
#IOP(5/87=12) Density=Current Pop=(MK,readradii) iop(6/33=2) iop(6/42=6)

holoCaM.loop1.water2.frame462 

   0  1 
C         11.22349       93.52377       46.63770
C         10.71849       94.80938       46.05043
O          9.51738       94.99587       45.94893
H         11.83652       93.73494       47.53881
H         10.38324       92.85404       46.91740
H         11.85541       93.00305       45.88599
N         11.60688       95.74827       45.63126
C         11.23292       97.00635       44.98119
C         10.54123       96.65491       43.65249
O         11.18077       96.03554       42.81432
C         12.55326       97.81583       44.79352
C         12.61558       99.25465       44.32757
O         13.72556       99.71633       44.11890
O         11.56311      100.08470       44.19811
H         12.60775       95.53765       45.77722
H         10.55910       97.56534       45.66651
H         13.18948       97.22615       44.09904
H         13.07237       97.83297       45.77932
N          9.22705       96.96072       43.41770
C          8.47522       96.55742       42.22362
C          8.16702       97.71962       41.28377
O          7.71960       97.44014       40.17950
C          7.12672       95.90106       42.62050
C          7.20966       94.55558       43.35507
C          7.74821       93.43354       42.45177
C          7.61107       92.03457       43.07689
N          8.43201       91.86827       44.27599
H          8.71934       97.47277       44.13443
H          9.08625       95.85743       41.61671
H          6.50495       95.73220       41.71362
H          6.57236       96.62051       43.26481
H          6.17119       94.28517       43.64906
H          7.80569       94.65859       44.27719
H          8.80808       93.62325       42.18206
H          7.14552       93.42358       41.51696
H          7.92997       91.28560       42.31834
H          6.54330       91.83405       43.32034
H          8.11366       92.51004       45.03578
H          8.33276       90.88399       44.61543
H          9.43717       92.04701       44.05017
N          8.39133       99.02415       41.61122
C          8.24952      100.12625       40.66195
C          9.59967      100.79331       40.39936
O          9.64838      101.72309       39.60617
C          7.14054      101.11414       41.09543
C          7.37991      101.90259       42.35394
O          8.51140      101.77075       43.06487
O          6.53195      102.69734       42.72694
H          8.71898       99.24924       42.55058
H          7.91333       99.73578       39.67673
H          6.19503      100.54065       41.21579
H          6.98649      101.84605       40.27237
N         10.75270      100.31642       40.96303
C         12.07938      100.78767       40.61024
C         12.45159      102.16418       41.11139
O         13.57098      102.56635       40.82438
H         10.72539       99.50086       41.58954
H         12.19390      100.74304       39.50573
H         12.82421      100.08859       41.05107
N         11.62539      102.94771       41.86739
C         12.05610      104.26401       42.34057
C         13.24112      104.19077       43.30778
O         13.84554      105.22474       43.55532
C         10.88533      105.07707       42.93661
C         10.23841      104.48646       44.16164
O          9.21081      105.13871       44.73641
O         10.61666      103.42823       44.63618
H         10.67599      102.62137       42.08553
H         12.39669      104.82770       41.44251
H         10.10102      105.18487       42.15646
H         11.25146      106.09487       43.19312
N         13.64018      103.01254       43.87426
C         14.84959      102.86152       44.66928
C         14.60336      102.43925       46.10281
O         15.58609      102.16992       46.77978
H         13.09141      102.16110       43.70703
H         15.44582      103.79921       44.69640
H         15.47476      102.08781       44.17434
N         13.35901      102.42806       46.66827
C         13.13878      102.15040       48.08893
C         12.03909      101.11657       48.31223
O         11.43115      100.64335       47.36177
C         12.82696      103.47594       48.83725
C         14.00866      104.45705       48.79109
O         11.65520      104.08159       48.35326
H         12.55093      102.72186       46.10461
H         14.06040      101.72987       48.54951
H         12.66908      103.26037       49.91391
H         11.85494      104.48115       47.46711
H         13.76422      105.36615       49.37967
H         14.91292      103.98560       49.23288
H         14.23747      104.76245       47.74868
N         11.75206      100.71985       49.58651
C         10.74312       99.73747       49.96515
C          9.69297      100.41659       50.84687
O         10.04352      101.05447       51.82979
C         11.44680       98.53667       50.67609
C         12.31183       97.76736       49.63642
C         10.42996       97.58878       51.33818
C         13.12008       96.60377       50.21595
H         12.30002      101.12736       50.35900
H         10.22521       99.32378       49.07443
H         12.09720       98.93273       51.48758
H         13.03668       98.46848       49.17177
H         11.65624       97.36732       48.82980
H          9.82892       98.12697       52.09754
H          9.75766       97.14258       50.58124
H         10.94211       96.77761       51.89103
H         13.80548       96.96785       51.00916
H         12.46346       95.80979       50.62562
H         13.72333       96.13979       49.40684
N          8.36686      100.23878       50.57340
C          7.25756      100.73808       51.38231
C          6.71161       99.58877       52.21826
O          7.28025       98.51339       52.17888
C          6.13773      101.32497       50.47091
C          6.61414      102.49929       49.60658
O          5.55002      100.31859       49.67938
H          8.12002       99.60606       49.80941
H          7.60447      101.52945       52.08207
H          5.33212      101.73934       51.11087
H          6.07799      100.22457       48.84670
H          7.00780      103.31740       50.24401
H          7.40301      102.16335       48.90720
H          5.76220      102.89036       49.00849
N          5.61380       99.73365       53.00765
C          5.05539       98.63515       53.79980
C          4.64331       97.45333       52.92495
O          5.07996       96.34400       53.19806
C          3.85347       99.11311       54.64942
C          4.29616      100.11186       55.72684
O          2.87318       99.69261       53.82680
H          5.15708      100.65583       53.04211
H          5.82872       98.26880       54.51361
H          3.43210       98.22004       55.16843
H          2.03775       99.73813       54.36040
H          5.05239       99.64126       56.39143
H          4.73388      101.02781       55.27986
H          3.42432      100.40492       56.34807
N          3.81294       97.61743       51.85649
C          3.34811       96.51733       51.00719
C          4.50870       95.72748       50.43456
O          4.53242       94.51039       50.55250
C          2.47721       97.08516       49.85892
C          1.90818       95.98360       48.94291
C          1.01713       96.53050       47.81184
C         -0.24410       97.28397       48.27826
N         -1.12571       96.44485       49.09218
H          3.50532       98.57561       51.62982
H          2.71323       95.83226       51.61141
H          3.07288       97.79618       49.24288
H          1.63996       97.64385       50.32470
H          1.34005       95.24738       49.54796
H          2.74951       95.43932       48.46139
H          0.69833       95.67362       47.17876
H          1.62021       97.21328       47.17406
H         -0.79895       97.61642       47.37309
H          0.03172       98.19834       48.84485
H         -1.99381       96.98233       49.31653
H         -1.38958       95.58024       48.56632
H         -0.66308       96.18904       49.99321
N          5.50377       96.38005       49.78984
C          6.63103       95.72653       49.13285
C          7.40677       94.87581       50.12909
O          7.66791       93.71574       49.84466
C          7.52480       96.79027       48.46261
C          6.72633       97.63200       47.43504
C          7.56330       98.69545       46.81251
O          7.55689       98.85558       45.49214
O          8.24856       99.44038       47.48779
H          5.44649       97.40701       49.79098
H          6.25967       95.06614       48.31736
H          8.38131       96.29602       47.95537
H          7.92816       97.45803       49.24678
H          5.87951       98.15398       47.90551
H          6.30616       96.97840       46.63948
N          7.73391       95.37532       51.35164
C          8.39501       94.62368       52.39810
H          9.31097       95.16036       52.71834
H          7.71420       94.54604       53.27342
H          8.67351       93.60054       52.07457
H          7.45343       96.33009       51.57634
Ca         9.44820       99.75625       44.75968
O          6.48549      102.50939       46.02780
H          6.42474      101.81204       45.32803
H          5.58836      102.92776       46.04281
O          9.12956      103.16129       47.16766
H          8.91117      104.12338       47.25168
H          9.41763      102.89323       48.07551

Ca 1.0



