%chk=holoCaM-CaMKII.loop2.water2.frame73.chk
%nprocshared=20
%mem=10GB
%nosave
#b3lyp/svp scf=(tight,noincore,xqc) Test 
#IOP(5/87=12) Density=Current Pop=(MK,readradii) iop(6/33=2) iop(6/42=6)

holoCaM-CaMKII.loop2.water2.frame73 

   -2  1 
C         66.52139       60.96152       82.20818
C         65.04410       60.72002       82.36179
O         64.35440       60.49141       81.37982
H         66.83724       60.90124       81.14642
H         66.77777       61.96853       82.60314
H         67.08495       60.20217       82.79284
N         64.50058       60.75749       83.60502
C         63.09131       60.52531       83.91917
C         62.17915       61.54567       83.25654
O         62.36318       62.73771       83.45820
C         62.94132       60.57951       85.44899
C         61.54191       60.51186       85.97821
O         61.14901       61.40088       86.71586
O         60.71102       59.49005       85.72700
H         65.15033       60.95058       84.38499
H         62.80373       59.50478       83.58728
H         63.38555       61.53089       85.81799
H         63.52237       59.74120       85.88701
N         61.13566       61.12055       82.48360
C         60.17139       62.00788       81.84322
C         58.73428       61.77042       82.31839
O         57.86351       62.50098       81.86517
C         60.23746       61.77999       80.32604
H         61.01603       60.10990       82.34145
H         60.42538       63.06873       82.05345
H         61.26620       61.96545       79.95174
H         59.95937       60.73002       80.08137
H         59.54128       62.46023       79.79048
N         58.39064       60.74570       83.15986
C         57.00126       60.38120       83.44887
C         56.71892       60.08701       84.92930
O         55.58289       59.76004       85.24386
C         56.61504       59.21916       82.50016
C         57.44824       57.96330       82.60825
O         57.34050       57.09691       81.75680
O         58.18568       57.71229       83.70015
H         59.12060       60.10251       83.47903
H         56.32245       61.21980       83.17538
H         56.75598       59.61002       81.46856
H         55.53950       58.95770       82.60623
N         57.67209       60.22052       85.89844
C         57.43069       60.02274       87.32634
C         57.13219       58.59558       87.77392
O         56.93224       58.41259       88.96672
H         58.60015       60.56393       85.63332
H         56.59833       60.68665       87.64499
H         58.34202       60.33995       87.88027
N         57.07962       57.53838       86.91341
C         56.75196       56.17060       87.33086
C         57.82912       55.47960       88.18473
O         57.61465       54.33354       88.55634
C         56.38441       55.30920       86.09752
C         57.48817       55.07908       85.09725
N         57.23650       54.34874       83.98933
O         58.60203       55.54762       85.26866
H         57.20844       57.71967       85.91403
H         55.81804       56.21368       87.93511
H         55.54180       55.80595       85.56750
H         56.02333       54.31694       86.44459
H         56.30183       53.94936       83.82116
H         57.97692       54.18402       83.29733
N         58.98374       56.10132       88.56725
C         59.98125       55.48644       89.43796
C         60.88222       54.45624       88.77154
O         61.75627       53.94509       89.45673
H         59.13820       57.08280       88.31044
H         59.47810       55.04944       90.32894
H         60.65981       56.28670       89.80361
N         60.75824       54.11035       87.45856
C         61.62313       53.14915       86.77803
C         62.24122       53.74671       85.52356
O         61.52439       54.30407       84.70580
C         60.81884       51.89043       86.37591
C         60.41859       51.07061       87.60176
O         59.66261       52.23196       85.65228
H         60.00317       54.52766       86.90760
H         62.44717       52.79785       87.43816
H         61.47184       51.21858       85.76679
H         59.92710       52.33087       84.70124
H         59.75710       51.65563       88.27314
H         59.88653       50.15116       87.27807
H         61.32721       50.76242       88.16440
N         63.56250       53.53962       85.25009
C         64.16666       53.83379       83.94863
C         63.42880       53.02582       82.88842
O         63.32939       51.81489       83.02953
C         65.68996       53.46797       83.94679
C         66.46422       54.38856       84.92912
C         66.29067       53.57437       82.52494
C         67.92931       53.98668       85.12539
H         64.13374       53.05461       85.95839
H         64.07985       54.91692       83.71718
H         65.79385       52.41012       84.27815
H         65.99290       54.35103       85.93226
H         66.41769       55.44112       84.57213
H         67.35464       53.26849       82.50542
H         65.77914       52.88109       81.82814
H         66.20108       54.60952       82.13191
H         68.40114       54.66722       85.86489
H         67.99150       52.94724       85.51213
H         68.51336       54.06539       84.18733
N         62.93594       53.63665       81.77238
C         62.28930       52.90704       80.68486
C         63.28284       52.67905       79.56100
O         64.39978       53.16752       79.63355
C         61.06974       53.68806       80.15133
C         60.02049       53.92985       81.19295
O         58.89847       53.47288       81.04571
O         60.29378       54.69356       82.26634
H         63.11287       54.64099       81.64390
H         61.96411       51.90357       81.03656
H         60.60790       53.11658       79.31765
H         61.39741       54.67352       79.75320
N         62.94064       51.90609       78.48743
C         63.87098       51.64466       77.39698
C         64.28541       52.94074       76.71213
O         65.48882       53.13658       76.58678
C         63.31042       50.62153       76.37858
C         64.31855       50.37790       75.28072
C         64.06485       50.82966       73.97397
C         65.53434       49.73092       75.56099
C         65.01758       50.64516       72.96838
C         66.47986       49.54022       74.54993
C         66.22354       50.00031       73.25564
H         62.00601       51.47498       78.45810
H         64.77833       51.16802       77.83148
H         62.36923       50.97435       75.93388
H         63.06865       49.66012       76.88079
H         63.14076       51.34340       73.73818
H         65.74960       49.37526       76.56090
H         64.82283       51.00793       71.96760
H         67.41384       49.04080       74.77198
H         66.96056       49.85968       72.47612
N         63.40634       53.87780       76.23448
C         63.81994       55.11947       75.59547
C         64.73399       55.95135       76.47965
O         65.76364       56.41932       76.02041
C         62.50170       55.87781       75.36529
C         61.51502       54.74876       75.19992
C         61.95600       53.80683       76.31036
H         64.29741       54.87946       74.61823
H         62.18882       56.41083       76.29245
H         62.53505       56.61735       74.53744
H         60.44562       55.04552       75.24567
H         61.71344       54.25419       74.22100
H         61.63364       54.17923       77.30593
H         61.50846       52.82579       76.11192
N         64.37948       56.17581       77.77799
C         65.10785       57.05568       78.69124
C         66.51790       56.56672       78.99964
O         67.27620       57.33157       79.58090
C         64.33736       57.17875       80.02551
C         62.90929       57.73853       79.85269
C         62.10509       57.66030       81.11771
O         60.93451       58.00264       81.10148
O         62.63530       57.17007       82.25446
H         63.52368       55.71390       78.11197
H         65.17539       58.05855       78.21399
H         64.89135       57.83259       80.73487
H         64.28468       56.16083       80.46431
H         62.33925       57.15646       79.10453
H         62.96021       58.79097       79.50068
N         66.93036       55.30611       78.68625
C         68.25688       54.79723       78.96581
H         68.91506       55.55827       79.43376
H         68.17825       53.92738       79.65148
H         68.72600       54.46308       78.01660
H         66.27413       54.65186       78.25109
Ca        60.38673       57.98850       84.09915
O         61.35313       57.05495       86.86715
H         61.25137       57.78029       87.53293
H         62.13871       56.54528       87.18331
O         63.71455       57.16461       85.02150
H         64.18590       57.26719       85.88557
H         64.38865       57.41373       84.34092

Ca 1.0



