%chk=holoCaM-CaMKII.loop4.water1.frame14.chk
%nprocshared=20
%mem=10GB
%nosave
#b3lyp/svp scf=(tight,noincore,xqc) Test 
#IOP(5/87=12) Density=Current Pop=(MK,readradii) iop(6/33=2) iop(6/42=6)

holoCaM-CaMKII.loop4.water1.frame14 

   -3  1 
C         49.83616       59.49280       30.95355
C         49.61787       58.95763       32.33693
O         49.62135       59.72042       33.28967
H         50.73512       59.01340       30.51049
H         48.95359       59.25679       30.32170
H         49.98541       60.59238       30.97016
N         49.41729       57.62663       32.51064
C         49.19246       56.99383       33.80535
C         50.38829       57.20035       34.73403
O         51.49825       56.85059       34.35934
C         48.88738       55.50261       33.56472
C         48.65443       54.74059       34.82576
O         49.33615       53.75811       35.06585
O         47.68258       55.11308       35.67944
H         49.41408       57.03513       31.66361
H         48.28914       57.43301       34.26921
H         49.72286       55.02958       33.00389
H         47.96519       55.42687       32.94609
N         50.21245       57.74359       35.97983
C         51.29751       57.99274       36.93346
C         51.26026       56.99654       38.09700
O         52.24748       56.94992       38.81965
C         51.21100       59.48313       37.45762
C         51.43402       60.48932       36.29766
C         52.18068       59.78735       38.62518
C         51.27196       61.96446       36.69790
H         49.25531       57.97328       36.28085
H         52.27841       57.82793       36.43494
H         50.18460       59.63958       37.86095
H         50.68673       60.28840       35.50663
H         52.44957       60.34994       35.86773
H         53.23660       59.64063       38.31739
H         52.04965       60.81805       39.00747
H         51.95301       59.16511       39.51239
H         50.26921       62.14413       37.13927
H         52.05089       62.28755       37.41830
H         51.38546       62.60865       35.80127
N         50.18600       56.19519       38.37725
C         50.11050       55.40773       39.61607
C         49.93831       53.90340       39.40715
O         50.11486       53.17682       40.37458
C         48.99730       56.00318       40.50434
C         47.66749       55.88248       39.82235
O         47.07267       56.96010       39.27880
O         47.17959       54.78007       39.63906
H         49.35936       56.22406       37.76420
H         51.06097       55.51440       40.18255
H         49.23187       57.07980       40.65693
H         48.95837       55.51385       41.50071
N         49.60096       53.35917       38.20149
C         49.56542       51.92151       37.95083
C         48.20928       51.35470       37.56208
O         48.17288       50.16639       37.27317
H         49.40409       53.98436       37.41719
H         49.91185       51.34875       38.83747
H         50.27851       51.70967       37.12552
N         47.05397       52.08478       37.55628
C         45.75390       51.47120       37.25276
C         45.47210       51.36312       35.76462
O         44.46067       50.77108       35.41273
C         44.59681       52.17025       38.00651
C         44.38280       53.63005       37.71563
O         43.57667       54.25200       38.38875
O         45.12753       54.29594       36.81915
H         47.09006       53.06985       37.84458
H         45.75767       50.43427       37.65719
H         44.82263       52.09011       39.09226
H         43.64287       51.63181       37.81837
N         46.29747       51.91232       34.82972
C         46.02406       51.86498       33.40477
C         44.70205       52.52282       33.10525
O         43.85930       51.90007       32.48557
H         47.14406       52.41089       35.12750
H         46.02411       50.81022       33.05061
H         46.82687       52.41188       32.86401
N         44.46840       53.79576       33.52096
C         43.21635       54.52778       33.32307
C         43.50504       55.99910       33.57655
O         43.88955       56.35025       34.68512
C         42.09079       54.08132       34.29631
C         41.47280       52.68166       34.11025
C         40.78183       52.51871       32.77522
N         41.05818       51.46893       31.96529
O         39.93602       53.33218       32.43416
H         45.25876       54.28408       33.97224
H         42.88651       54.41791       32.26707
H         41.25226       54.80707       34.20175
H         42.47326       54.15514       35.33827
H         40.69678       52.56305       34.89678
H         42.22171       51.88520       34.28714
H         41.73297       50.74239       32.24216
H         40.57423       51.36558       31.06111
N         43.42471       56.90257       32.55945
C         43.93263       58.26165       32.70413
C         42.93618       59.12893       33.46555
O         41.85685       59.38959       32.95244
C         44.29059       58.88002       31.31705
C         44.97245       60.24595       31.48703
C         45.24244       57.97303       30.51044
H         43.13271       56.56654       31.63079
H         44.89530       58.19907       33.25971
H         43.35965       59.01389       30.72248
H         45.91627       60.14086       32.06563
H         45.21349       60.68482       30.49616
H         44.30668       60.95315       32.00981
H         44.78361       56.99256       30.27445
H         45.48536       58.44845       29.53618
H         46.18667       57.79513       31.06822
N         43.24483       59.61835       34.70185
C         42.37780       60.52721       35.45930
C         42.35185       61.89771       34.76379
O         43.12125       62.09388       33.83600
C         42.95962       60.64149       36.89977
C         42.11263       61.26213       37.98801
N         42.65012       61.45441       39.21512
O         40.94473       61.55586       37.79875
H         44.13489       59.32065       35.12306
H         41.36405       60.07136       35.50931
H         43.92378       61.18756       36.83477
H         43.17633       59.61589       37.26691
H         43.63039       61.19922       39.40582
H         42.08993       61.86775       39.97537
N         41.51938       62.90427       35.14666
C         41.55915       64.24335       34.56147
C         42.90944       64.89961       34.81920
O         43.56297       65.29910       33.86740
C         40.42876       65.11114       35.15638
C         40.44643       66.52905       34.63372
C         40.25566       66.79859       33.26749
C         40.65820       67.59845       35.52015
C         40.27763       68.11663       32.79908
C         40.68062       68.91332       35.05003
C         40.48967       69.17733       33.68673
O         40.50738       70.44237       33.22088
H         40.82075       62.72293       35.87281
H         41.39139       64.16598       33.46324
H         40.53278       65.11867       36.26358
H         39.44486       64.65108       34.91970
H         40.08875       65.99162       32.56536
H         40.81026       67.41576       36.57674
H         40.12916       68.31391       31.74481
H         40.84675       69.72492       35.74707
H         40.64880       71.20235       33.80358
N         43.38310       65.03688       36.09221
C         44.66578       65.66410       36.41305
C         45.81747       65.04742       35.63951
O         46.64509       65.79228       35.13069
C         44.95741       65.66698       37.93544
C         44.96085       64.28455       38.61577
C         45.37335       64.40362       40.05539
O         46.49143       64.80282       40.34125
O         44.52073       64.05544       41.03791
H         42.80308       64.67140       36.85942
H         44.61937       66.73610       36.11625
H         44.19603       66.29830       38.44431
H         45.94889       66.15153       38.08360
H         45.66838       63.59286       38.11898
H         43.94328       63.84550       38.57119
N         45.90984       63.70269       35.46432
C         46.98014       63.07075       34.69804
C         47.01133       63.60876       33.27808
O         48.04242       64.12529       32.87106
C         46.81305       61.53942       34.70831
C         47.03401       60.98554       36.12752
C         46.86834       59.50264       36.22911
O         47.06116       58.91354       37.41963
O         46.56043       58.82454       35.26362
H         45.16853       63.11251       35.87100
H         47.96195       63.30295       35.17104
H         47.57113       61.08260       34.03828
H         45.80249       61.26561       34.33328
H         46.32229       61.44321       36.84231
H         48.06545       61.23667       36.45311
N         45.90783       63.55617       32.48371
C         45.85951       64.09777       31.14052
H         45.08957       64.89713       31.09776
H         46.82984       64.53333       30.82225
H         45.58272       63.29460       30.42743
H         45.04783       63.13822       32.85351
Ca        45.70241       56.30693       37.61601
O         44.03216       58.06046       39.25198
H         44.72100       58.76314       39.13968
H         43.57404       58.29219       40.09763

Ca 1.0



