%chk=holoCaM-CaMKII.loop2.water2.frame71.chk
%nprocshared=20
%mem=10GB
%nosave
#b3lyp/svp scf=(tight,noincore,xqc) Test 
#IOP(5/87=12) Density=Current Pop=(MK,readradii) iop(6/33=2) iop(6/42=6)

holoCaM-CaMKII.loop2.water2.frame71 

   -2  1 
C         49.67243       59.92590       77.00860
C         48.34047       59.26135       76.79416
O         47.99784       58.93179       75.66918
H         50.22628       60.04166       76.05365
H         49.52718       60.92573       77.46905
H         50.28637       59.30476       77.69756
N         47.54976       59.00388       77.86751
C         46.28407       58.27860       77.80766
C         45.19037       59.03701       77.06471
O         44.88012       60.15442       77.45459
C         45.81142       58.00678       79.24914
C         44.52981       57.23932       79.28276
O         43.45223       57.76728       79.89351
O         44.45738       56.14359       78.75129
H         47.90969       59.28862       78.79311
H         46.46167       57.29294       77.32339
H         45.67169       58.97046       79.78740
H         46.58563       57.41959       79.78593
N         44.50631       58.44368       76.03679
C         43.35283       59.05692       75.37738
C         42.06784       58.21204       75.47310
O         41.04426       58.69735       75.01157
C         43.70034       59.31717       73.90741
H         44.80839       57.51234       75.71560
H         43.12555       60.03927       75.84517
H         44.59408       59.97435       73.84060
H         43.92057       58.36284       73.38218
H         42.85991       59.82677       73.38875
N         42.03314       56.94931       76.00651
C         40.82775       56.09742       76.02315
C         40.50384       55.49414       77.40406
O         39.50825       54.78981       77.50192
C         40.96991       54.98232       74.95764
C         42.29053       54.29632       75.07075
O         43.09311       54.36548       74.15289
O         42.66985       53.75979       76.23601
H         42.91151       56.53201       76.34201
H         39.92926       56.68380       75.73235
H         40.91830       55.44906       73.94914
H         40.13737       54.25075       75.03305
N         41.25536       55.74226       78.51417
C         40.92626       55.26476       79.85812
C         41.08632       53.76801       80.12160
O         40.82266       53.36543       81.24596
H         42.04984       56.37879       78.42757
H         39.88686       55.57380       80.10256
H         41.60142       55.77401       80.57960
N         41.51000       52.88339       79.17467
C         41.64866       51.43925       79.40327
C         42.79060       51.03944       80.35732
O         42.95317       49.84812       80.58444
C         41.77135       50.69106       78.04938
C         43.02108       50.96857       77.25361
N         43.19450       50.38104       76.04871
O         43.87771       51.72170       77.68214
H         41.67473       53.23987       78.23408
H         40.69399       51.07580       79.84483
H         40.89461       50.96487       77.42200
H         41.72427       49.59619       78.23399
H         42.47997       49.74715       75.66368
H         44.04294       50.56253       75.49619
N         43.59332       51.95402       80.97912
C         44.61521       51.59560       81.96060
C         45.90900       51.02672       81.39270
O         46.77988       50.70630       82.18883
H         43.41553       52.95390       80.83742
H         44.17691       50.89117       82.70141
H         44.90550       52.51258       82.51658
N         46.12680       50.88446       80.05510
C         47.35479       50.34136       79.47571
C         47.97326       51.30565       78.47876
O         47.29814       51.72348       77.54715
C         47.06240       49.00494       78.74989
C         46.77624       47.87971       79.74066
O         45.96941       49.12950       77.87483
H         45.38302       51.15373       79.40636
H         48.11638       50.12324       80.25694
H         47.97379       48.68092       78.18968
H         46.31936       49.46722       77.01241
H         47.65418       47.73242       80.40704
H         45.88332       48.10977       80.35688
H         46.60303       46.93291       79.18598
N         49.30242       51.61520       78.55710
C         50.00296       52.31725       77.48425
C         49.90295       51.45213       76.23637
O         50.32283       50.30290       76.27361
C         51.50078       52.59828       77.84439
C         51.59175       53.52394       79.08937
C         52.23520       53.24011       76.64270
C         53.02122       53.78536       79.57316
H         49.84907       51.25320       79.35268
H         49.52123       53.30219       77.30900
H         52.00028       51.63081       78.07574
H         51.05187       53.05858       79.93881
H         51.10804       54.49997       78.86949
H         52.20444       52.57652       75.75527
H         51.77530       54.21531       76.37336
H         53.31095       53.39522       76.85732
H         53.53068       52.82776       79.81057
H         53.61427       54.34492       78.82232
H         52.98835       54.40713       80.49277
N         49.37604       51.95778       75.08861
C         49.27105       51.20114       73.84637
C         50.36981       51.64419       72.90628
O         51.14372       52.51261       73.27400
C         47.88668       51.44305       73.21164
C         46.76794       51.06353       74.13212
O         46.63755       49.90816       74.50155
O         45.89331       52.00127       74.54121
H         49.10160       52.94927       75.06973
H         49.41333       50.11329       74.03170
H         47.77773       50.85748       72.27512
H         47.78895       52.52348       72.96084
N         50.53194       51.07770       71.68047
C         51.58412       51.51176       70.77017
C         51.41009       52.98565       70.36921
O         52.35361       53.73544       70.56988
C         51.65038       50.61789       69.51183
C         52.81006       50.90715       68.56528
C         52.76309       50.34980       67.27615
C         53.92968       51.70086       68.91146
C         53.78477       50.59673       66.35323
C         54.94951       51.93849       67.98845
C         54.87535       51.39246       66.70847
H         49.90247       50.30987       71.39746
H         52.54960       51.37434       71.30571
H         50.70320       50.73937       68.95491
H         51.71467       49.54737       69.80513
H         51.92295       49.73456       66.97934
H         54.04792       52.13815       69.88852
H         53.72933       50.17271       65.35982
H         55.79902       52.54872       68.26938
H         55.66552       51.58390       65.99453
N         50.26264       53.50113       69.81285
C         50.14457       54.88368       69.35650
C         50.38841       55.88229       70.47499
O         51.06771       56.87075       70.23279
C         48.74051       54.94593       68.73621
C         47.97489       53.89630       69.50565
C         49.01272       52.78470       69.62229
H         50.86794       55.11594       68.54302
H         48.27979       55.95526       68.68166
H         48.81521       54.54987       67.69676
H         47.75923       54.30193       70.51639
H         47.01229       53.57671       69.05144
H         48.70912       52.15038       70.47196
H         49.06800       52.20154       68.67901
N         49.93709       55.66247       71.73665
C         50.20694       56.56963       72.85089
C         51.69952       56.68695       73.09114
O         52.22357       57.79098       73.06446
C         49.52986       56.05452       74.12985
C         48.00766       56.02882       73.96980
C         47.32267       55.39519       75.12812
O         46.00346       55.23486       75.04697
O         47.93069       54.96767       76.09381
H         49.41625       54.79292       71.91570
H         49.78884       57.57694       72.62465
H         49.78452       56.71008       74.99212
H         49.89933       55.02950       74.34727
H         47.71382       55.42874       73.08594
H         47.61886       57.05914       73.82617
N         52.44199       55.57131       73.32541
C         53.86602       55.57271       73.57356
H         54.29047       56.59689       73.58784
H         54.06219       55.09090       74.55471
H         54.37331       54.98380       72.78048
H         51.97569       54.66177       73.31792
Ca        44.84520       54.04453       76.50332
O         45.55654       54.20948       80.37406
H         44.99132       54.69344       81.02757
H         46.43456       54.65411       80.44242
O         48.50282       55.22255       78.92923
H         48.58222       55.94029       79.60530
H         47.59790       55.34218       78.54707

Ca 1.0



