%chk=holoCaM-CaMKII.loop4.water2.frame29.chk
%nprocshared=20
%mem=10GB
%nosave
#b3lyp/svp scf=(tight,noincore,xqc) Test 
#IOP(5/87=12) Density=Current Pop=(MK,readradii) iop(6/33=2) iop(6/42=6)

holoCaM-CaMKII.loop4.water2.frame29 

   -3  1 
C         16.01214       67.29350       35.15510
C         14.73904       68.08460       35.11980
O         14.65115       69.11447       35.76979
H         16.76185       67.77693       35.81634
H         15.80128       66.27273       35.53898
H         16.43181       67.21586       34.13007
N         13.69796       67.64826       34.36316
C         12.41785       68.34128       34.27602
C         11.73106       68.34699       35.63698
O         11.56127       67.27740       36.20673
C         11.52072       67.61735       33.24900
C         10.24149       68.34381       32.95222
O          9.41363       67.81915       32.22704
O         10.01041       69.57631       33.44256
H         13.83299       66.78222       33.81697
H         12.59511       69.37602       33.90592
H         11.28397       66.59986       33.63003
H         12.06267       67.51024       32.28397
N         11.27845       69.50716       36.19931
C         10.59956       69.55798       37.49276
C          9.13565       69.93390       37.28286
O          8.27654       69.12911       37.61673
C         11.33713       70.52353       38.47713
C         12.81766       70.08677       38.65148
C         10.60890       70.56149       39.83575
C         13.63811       70.96459       39.60487
H         11.39305       70.38492       35.67701
H         10.60738       68.54933       37.96448
H         11.32794       71.55234       38.05441
H         13.31284       70.13310       37.66134
H         12.86663       69.03781       39.01621
H         10.61895       69.55840       40.31277
H         11.07965       71.29409       40.52183
H          9.55663       70.89006       39.71127
H         14.69586       70.62528       39.59683
H         13.60840       72.02949       39.30119
H         13.27178       70.88161       40.64734
N          8.76956       71.14048       36.75738
C          7.36892       71.55266       36.60690
C          6.57671       70.76324       35.55117
O          5.39035       71.02499       35.40758
C          7.27237       73.07442       36.34527
C          7.85541       73.55335       35.04263
O          7.78654       74.86380       34.74223
O          8.38062       72.78261       34.25494
H          9.51346       71.81497       36.53032
H          6.86962       71.39418       37.58936
H          7.78640       73.60859       37.17480
H          6.20188       73.37294       36.37089
N          7.13857       69.76918       34.80622
C          6.39845       68.93693       33.86816
C          5.96483       69.65467       32.60807
O          4.78216       69.64363       32.29827
H          8.12306       69.52610       34.95381
H          5.52807       68.47673       34.38514
H          7.06090       68.10944       33.53822
N          6.88959       70.25534       31.80558
C          6.57737       70.85526       30.50060
C          7.44106       70.29106       29.35409
O          7.05893       70.48317       28.20819
C          6.64374       72.40259       30.58227
C          7.99004       72.92315       31.00316
O          8.17663       74.11573       31.17845
O          8.99216       72.05065       31.15205
H          7.85127       70.28040       32.16223
H          5.52698       70.60408       30.23514
H          5.90002       72.73509       31.33649
H          6.36853       72.84648       29.60022
N          8.60623       69.60350       29.56983
C          9.39403       68.96197       28.52388
C         10.78782       69.54528       28.35122
O         11.57445       68.92401       27.65039
H          8.96787       69.49672       30.52107
H          8.88814       68.99027       27.53499
H          9.49597       67.89114       28.80764
N         11.15144       70.75181       28.88202
C         12.46143       71.36883       28.66496
C         13.12625       71.80796       29.99811
O         12.85104       70.93129       31.04808
C         12.27384       72.61791       27.77669
C         11.87382       72.26079       26.33627
C         11.63404       73.48330       25.47934
N         11.36005       73.33855       24.16303
O         11.68568       74.60616       25.96189
H         10.45157       71.29592       29.39598
H         13.15195       70.65600       28.16071
H         13.21485       73.20158       27.71243
H         11.49870       73.26805       28.23798
H         10.95073       71.64355       26.32764
H         12.70179       71.67103       25.88555
H         11.32419       72.40263       23.73358
H         11.19501       74.16495       23.56913
N         14.57618       71.93939       29.83120
C         15.32959       72.34628       31.03327
C         15.59394       73.84962       31.01672
O         16.16180       74.32951       30.04576
C         16.65250       71.53313       31.04902
C         17.52468       71.87514       32.26673
C         16.35425       70.02004       31.05540
H         14.86162       72.47382       28.97989
H         14.78244       72.07698       31.96313
H         17.23149       71.76593       30.12730
H         17.80721       72.94766       32.26101
H         16.98713       71.64708       33.21181
H         18.46316       71.28067       32.23792
H         15.76728       69.72353       30.15994
H         17.29988       69.43833       31.03688
H         15.77725       69.73607       31.96253
N         15.26425       74.64080       32.08469
C         15.57713       76.07143       32.13465
C         16.73605       76.33592       33.09095
O         17.28229       75.40043       33.65161
C         14.32840       76.94763       32.42673
C         13.85648       76.99314       33.86246
N         13.25416       75.93858       34.44657
O         13.98340       78.03097       34.49617
H         14.84417       74.19986       32.91017
H         15.93287       76.40155       31.13569
H         13.48858       76.67232       31.75439
H         14.60102       77.99048       32.15794
H         13.08834       75.06868       33.92766
H         12.91195       76.01834       35.41588
N         17.18008       77.61148       33.28850
C         18.34405       77.96831       34.09871
C         18.25526       77.42698       35.51359
O         19.20752       76.79820       35.95550
C         18.50600       79.50478       34.10670
C         19.73590       79.96494       34.85223
C         21.01623       79.55396       34.44206
C         19.61305       80.82286       35.95772
C         22.15199       79.98913       35.12994
C         20.75099       81.26059       36.64128
C         22.02513       80.84384       36.22934
O         23.13126       81.25922       36.87837
H         16.67890       78.37361       32.81279
H         19.24580       77.53020       33.61795
H         17.59174       79.96075       34.54761
H         18.58847       79.86504       33.05802
H         21.13855       78.89818       33.58963
H         18.63784       81.15725       36.28956
H         23.13216       79.66348       34.80498
H         20.64072       81.92457       37.48919
H         23.08741       81.85482       37.63990
N         17.15134       77.62427       36.28219
C         17.01395       77.07720       37.63074
C         17.10214       75.55445       37.61637
O         17.91556       75.01073       38.34965
C         15.68969       77.53006       38.28018
C         15.67168       79.05102       38.52083
C         14.40336       79.48132       39.19735
O         13.32583       79.31698       38.64799
O         14.45071       80.06716       40.40941
H         16.37262       78.16618       35.87728
H         17.83707       77.46474       38.27462
H         15.59109       77.03242       39.27119
H         14.82858       77.22307       37.64614
H         15.76673       79.60629       37.56470
H         16.53422       79.32466       39.16834
N         16.31117       74.80234       36.79390
C         16.35264       73.33257       36.76684
C         17.70734       72.76566       36.34188
O         17.87786       71.55790       36.44395
C         15.29710       72.77012       35.79040
C         13.85403       73.09397       36.19840
C         12.84593       72.65547       35.17105
O         11.54311       72.91813       35.37696
O         13.18734       72.08979       34.14401
H         15.65360       75.30137       36.17728
H         16.13402       72.96264       37.79353
H         15.38383       71.66380       35.72777
H         15.51308       73.18924       34.78704
H         13.73532       74.17810       36.35019
H         13.62255       72.59776       37.15558
N         18.70056       73.54809       35.83588
C         19.99356       73.04629       35.42037
H         20.78706       73.55401       36.00813
H         20.09302       71.95103       35.56726
H         20.14448       73.27392       34.34426
H         18.54321       74.54939       35.71347
Ca        11.09666       72.09413       31.83931
O         10.33780       75.39236       33.30007
H         10.42382       75.12899       34.25033
H         10.62597       76.33919       33.28033
O         11.51805       74.89915       30.53919
H         10.70880       74.43642       30.20646
H         11.56744       75.72702       29.99912

Ca 1.0



