%chk=holoCaM-CaMKII.loop1.water2.frame189.chk
%nprocshared=20
%mem=10GB
%nosave
#b3lyp/svp scf=(tight,noincore,xqc) Test 
#IOP(5/87=12) Density=Current Pop=(MK,readradii) iop(6/33=2) iop(6/42=6)

holoCaM-CaMKII.loop1.water2.frame189 

   0  1 
C         11.22937       70.65221       24.82522
C         10.73222       72.00408       24.41755
O         11.54280       72.87912       24.15920
H         12.34010       70.64014       24.86888
H         10.83095       70.39439       25.82888
H         10.89074       69.89743       24.08604
N          9.39427       72.25229       24.35774
C          8.83390       73.54271       23.98170
C          8.19747       74.16625       25.20055
O          6.98864       74.34112       25.25682
C          7.90097       73.35812       22.76862
C          7.23820       74.61926       22.25644
O          7.95565       75.67457       21.80886
O          6.02290       74.64544       22.15384
H          8.74011       71.49666       24.61410
H          9.63531       74.21358       23.68460
H          7.11347       72.61637       23.02654
H          8.50367       72.93609       21.93430
N          9.00072       74.50085       26.25087
C          8.48787       75.00106       27.51919
C          7.96037       76.43342       27.45049
O          7.38831       76.86310       28.44300
C          9.55573       74.89399       28.63178
C         10.07054       73.45206       28.81482
C         10.96498       73.34222       30.05676
C         11.50379       71.91975       30.28996
N         12.46707       71.51145       29.26478
H         10.01080       74.31648       26.15838
H          7.64730       74.33656       27.82102
H          9.08574       75.22058       29.58554
H         10.41370       75.56845       28.41382
H         10.63605       73.14393       27.91350
H          9.20703       72.76356       28.94388
H         10.34996       73.62083       30.94052
H         11.81729       74.05235       29.98820
H         10.66201       71.19302       30.33459
H         12.01663       71.90699       31.27685
H         12.01308       71.43603       28.32768
H         13.25805       72.19496       29.22499
H         12.85169       70.57260       29.51758
N          8.09344       77.22938       26.34398
C          7.51481       78.57581       26.26138
C          6.36642       78.64217       25.25374
O          5.73034       79.68284       25.16120
C          8.60201       79.64949       26.02650
C          9.36184       79.55790       24.73188
O          9.13335       78.67963       23.91724
O         10.31269       80.47425       24.46880
H          8.59166       76.86329       25.52107
H          7.04782       78.84263       27.23434
H          9.33556       79.59516       26.86031
H          8.12283       80.65246       26.06633
N          5.98188       77.54515       24.53940
C          4.76188       77.47096       23.75738
C          4.73904       78.35488       22.53901
O          3.81821       79.14990       22.41508
H          6.51247       76.67162       24.62049
H          3.89602       77.69716       24.41782
H          4.63460       76.42762       23.40164
N          5.68405       78.22690       21.56461
C          5.62076       78.94294       20.29224
C          5.56635       78.00462       19.07993
O          5.32385       78.50628       17.99104
C          6.76371       79.97237       20.19572
C          8.13339       79.38553       20.37641
O          8.91935       79.81287       21.38122
O          8.55300       78.54396       19.60565
H          6.47043       77.58858       21.73372
H          4.67534       79.52596       20.24150
H          6.61110       80.73030       20.99404
H          6.71482       80.49581       19.21675
N          5.76577       76.65413       19.17050
C          5.61448       75.73596       18.04698
C          6.92444       75.13729       17.57340
O          6.87563       74.25298       16.72977
H          6.02526       76.23060       20.06803
H          5.14844       76.23003       17.16750
H          4.92788       74.92247       18.36719
N          8.12999       75.61567       17.99545
C          9.41566       75.13877       17.49108
C         10.36606       74.79857       18.62643
O         10.06903       75.06137       19.78228
C         10.05758       76.21162       16.56813
C          9.33613       76.32636       15.21858
O         10.12359       77.46248       17.20817
H          8.14398       76.39927       18.65578
H          9.28103       74.20555       16.90061
H         11.09598       75.90981       16.31402
H          9.22634       77.88640       17.15482
H          9.38350       75.35312       14.68504
H          8.27340       76.61640       15.35093
H          9.84285       77.09159       14.59198
N         11.54212       74.17239       18.33857
C         12.55909       73.81266       19.32102
C         13.88528       74.40604       18.86102
O         14.22413       74.26965       17.69278
C         12.64619       72.26658       19.46998
C         11.25216       71.69281       19.84936
C         13.69577       71.90098       20.54341
C         11.21347       70.16826       19.96146
H         11.71885       73.90440       17.35755
H         12.29722       74.21034       20.32764
H         12.95819       71.82749       18.49643
H         10.52026       71.96759       19.06023
H         10.90520       72.13330       20.81053
H         13.39672       72.30814       21.53404
H         13.82183       70.80436       20.63150
H         14.69359       72.30618       20.28099
H         10.17203       69.84353       20.16952
H         11.54714       69.70412       19.00945
H         11.84593       69.80521       20.79598
N         14.70546       75.04449       19.73931
C         15.96275       75.68215       19.36475
C         17.13288       74.92035       19.94881
O         16.93658       73.93080       20.63667
C         15.99203       77.15129       19.88371
C         14.84421       77.99867       19.32700
O         16.02055       77.19058       21.29282
H         14.44855       75.04763       20.73037
H         16.08592       75.69021       18.25992
H         16.92173       77.64632       19.53543
H         15.09368       77.16972       21.63708
H         14.88338       78.02208       18.21847
H         13.87515       77.57517       19.65058
H         14.92448       79.03800       19.71276
N         18.39839       75.36663       19.73582
C         19.56529       74.83337       20.42927
C         19.40578       75.04647       21.93127
O         19.71941       74.15111       22.70291
C         20.85943       75.53705       19.94347
C         21.13867       75.25039       18.46107
O         20.76583       76.92451       20.15052
H         18.52576       76.17329       19.10761
H         19.68065       73.74586       20.21797
H         21.70787       75.12408       20.53869
H         21.69075       77.28419       20.13289
H         22.08920       75.73726       18.15711
H         21.23698       74.15690       18.29364
H         20.32900       75.63975       17.80978
N         18.89796       76.22521       22.40166
C         18.76984       76.57306       23.81967
C         17.80498       75.68087       24.59727
O         17.70240       75.84520       25.80530
C         18.27782       78.03723       23.99628
C         19.00325       79.10486       23.15561
C         20.52647       79.06709       23.29655
C         21.16588       80.12405       22.38934
N         22.62296       80.07560       22.47856
H         18.62510       76.91909       21.69767
H         19.78066       76.47856       24.27233
H         18.37139       78.30329       25.07226
H         17.20003       78.10151       23.72401
H         18.61774       80.10314       23.45635
H         18.74255       78.98474       22.08451
H         20.90619       78.07186       22.98090
H         20.80970       79.24350       24.35631
H         20.80733       81.13499       22.68395
H         20.86204       79.93727       21.33382
H         23.02630       80.80625       21.84910
H         22.92776       80.26307       23.46094
H         22.96898       79.13690       22.17227
N         17.04725       74.74104       23.97496
C         16.07148       73.89190       24.63403
C         16.57477       72.46260       24.58234
O         16.74430       71.86528       25.63699
C         14.71101       74.09586       23.93960
C         14.13446       75.49262       24.26693
C         12.91808       75.80052       23.44620
O         11.69162       75.71965       23.96933
O         13.02101       76.03171       22.25729
H         17.13816       74.61623       22.96366
H         15.95224       74.15085       25.71078
H         13.99024       73.33146       24.29471
H         14.83998       73.96196       22.84366
H         14.87251       76.30270       24.08629
H         13.86855       75.49916       25.34620
N         16.90124       71.86435       23.40461
C         17.50336       70.54964       23.35587
H         18.45955       70.55622       23.92463
H         16.81842       69.79429       23.79306
H         17.72893       70.27395       22.30394
H         16.76114       72.36489       22.51886
Ca        10.06081       76.09845       22.46092
O         11.41202       78.49055       19.82614
H         11.66661       77.82951       19.13581
H         11.94300       79.29696       19.60729
O         12.39073       79.02371       22.59248
H         13.33943       79.23406       22.40326
H         11.90582       79.86222       22.38814

Ca 1.0



