%chk=holoCaM.loop3.water1.frame205.chk
%nprocshared=20
%mem=10GB
%nosave
#b3lyp/svp scf=(tight,noincore,xqc) Test 
#IOP(5/87=12) Density=Current Pop=(MK,readradii) iop(6/33=2) iop(6/42=6)

holoCaM.loop3.water1.frame205 

   0  1 
C         16.58245       48.21593       66.59290
C         17.64790       47.16395       66.60637
O         17.39681       46.07545       66.10675
H         15.69317       47.84486       67.14437
H         16.93303       49.15526       67.06755
H         16.29428       48.43088       65.54231
N         18.87623       47.41208       67.15064
C         19.93450       46.40402       67.14907
C         19.49907       45.21677       68.01758
O         18.49080       45.31439       68.70543
C         21.29429       47.05968       67.55863
C         22.51941       46.38303       66.97400
O         22.93704       45.17733       67.38507
O         23.13255       46.93277       66.07336
H         19.06634       48.34963       67.53695
H         20.03825       46.07519       66.09008
H         21.37175       47.21535       68.65592
H         21.29989       48.06952       67.09103
N         20.18553       44.04880       68.00275
C         19.78521       42.84485       68.71974
C         20.79018       42.57518       69.82265
O         20.38731       42.39786       70.96365
C         19.68473       41.68938       67.69935
C         19.06884       40.40156       68.26997
C         18.95829       39.33423       67.16724
C         18.25231       38.06444       67.66294
N         18.15764       37.06998       66.59245
H         21.01495       43.98545       67.41304
H         18.77937       42.97093       69.18128
H         20.68961       41.47430       67.27397
H         19.02322       42.02820       66.87032
H         18.05065       40.63288       68.65413
H         19.68810       40.01284       69.10699
H         19.97771       39.07452       66.80622
H         18.37451       39.74610       66.31434
H         17.22667       38.32438       68.00857
H         18.81289       37.63014       68.51979
H         19.11435       36.78600       66.27924
H         17.65445       36.22554       66.94907
H         17.62468       37.46051       65.78116
N         22.12680       42.60494       69.55571
C         23.17405       42.40579       70.54957
C         23.96228       43.69577       70.82837
O         24.91968       43.63830       71.58748
C         24.05675       41.22525       70.09592
C         24.68920       41.43468       68.74603
O         24.40620       40.69618       67.81613
O         25.57155       42.42912       68.55443
H         22.43235       42.80624       68.59395
H         22.73634       42.11138       71.52957
H         23.40722       40.32218       70.04643
H         24.85007       41.02804       70.84724
N         23.55163       44.91018       70.34844
C         24.13571       46.18746       70.74681
C         25.49172       46.54357       70.15932
O         25.98079       47.60968       70.50760
H         22.68836       44.96059       69.79371
H         24.19507       46.22002       71.85773
H         23.44455       46.99920       70.43367
N         26.17471       45.74356       69.29190
C         27.51687       46.09234       68.81584
C         27.58693       47.32906       67.91203
O         28.67269       47.88369       67.80761
C         28.23046       44.89912       68.13511
C         27.54336       44.33299       66.91385
N         28.16119       43.38332       66.17667
O         26.43053       44.71187       66.58857
H         25.76610       44.83894       69.03230
H         28.12483       46.32380       69.72021
H         28.34837       44.07267       68.86814
H         29.24892       45.23534       67.83976
H         29.09993       43.04591       66.43362
H         27.70718       42.99670       65.33684
N         26.52864       47.77337       67.17059
C         26.61410       48.92345       66.26673
C         26.55672       48.53560       64.79456
O         26.56027       49.42606       63.95678
H         25.63634       47.26032       67.21056
H         27.56511       49.48215       66.40661
H         25.78438       49.62094       66.50819
N         26.55486       47.23117       64.40597
C         26.56652       46.75195       63.02994
C         25.36075       45.86311       62.81375
O         25.19120       44.90094       63.54990
C         27.86866       45.95874       62.79938
C         29.05854       46.88615       62.77492
C         30.00258       46.89097       63.81482
C         29.22859       47.76173       61.68869
C         31.09364       47.76758       63.76941
C         30.32370       48.62582       61.63945
C         31.25961       48.63446       62.68226
O         32.31883       49.46818       62.64870
H         26.58518       46.50940       65.12761
H         26.52481       47.59109       62.30145
H         27.84318       45.41278       61.83084
H         27.96860       45.19776       63.60603
H         29.88877       46.22924       64.66458
H         28.51657       47.76592       60.87240
H         31.81185       47.77337       64.57951
H         30.44235       49.28712       60.79011
H         32.46880       50.07863       61.91220
N         24.47476       46.13452       61.81322
C         23.24803       45.37553       61.59005
C         23.31589       44.62739       60.26735
O         24.05063       45.01619       59.36949
C         22.02950       46.34853       61.69880
C         21.90678       46.81702       63.17395
C         20.71254       45.72517       61.20886
C         20.78068       47.81523       63.44158
H         24.66432       46.93061       61.18437
H         23.13845       44.58613       62.36717
H         22.22154       47.22492       61.03993
H         22.85760       47.30462       63.47585
H         21.74552       45.93195       63.82996
H         19.88851       46.46541       61.22751
H         20.79643       45.40894       60.14920
H         20.43723       44.86827       61.84302
H         20.91067       48.72096       62.81451
H         19.78572       47.36371       63.25220
H         20.80446       48.11205       64.51107
N         22.59818       43.47390       60.13302
C         22.59894       42.61662       58.95433
C         21.18074       42.43798       58.42806
O         20.25559       43.00695       58.98631
C         23.20457       41.25596       59.34539
O         22.42907       40.64574       60.34192
H         22.03023       43.16126       60.93559
H         23.22446       43.05391       58.14559
H         24.23703       41.42445       59.72555
H         23.25955       40.59051       58.45683
H         22.87729       39.78723       60.55685
N         20.93456       41.63792       57.35356
C         19.59207       41.36087       56.84865
C         18.74759       40.65048       57.89385
O         17.64561       41.10072       58.17284
C         19.66940       40.48533       55.59289
H         21.73717       41.19511       56.88058
H         19.10033       42.31463       56.55085
H         18.64765       40.29539       55.19841
H         20.25508       41.00548       54.80564
H         20.15458       39.51081       55.81425
N         19.21723       39.52957       58.51524
C         18.45725       38.75618       59.49557
C         17.95456       39.62083       60.62907
O         16.76148       39.59296       60.89982
C         19.31688       37.61930       60.05832
H         20.17108       39.21448       58.27969
H         17.57919       38.29369       58.99116
H         20.21506       38.02140       60.57454
H         18.72657       37.01740       60.78281
H         19.64551       36.95005       59.23541
N         18.79722       40.44746       61.30844
C         18.33679       41.33480       62.36982
C         17.19789       42.21351       61.87804
O         16.12958       42.17698       62.47286
C         19.47712       42.22638       62.88664
C         20.56691       41.45494       63.64644
C         21.47950       42.41856       64.34610
O         22.82019       42.37288       64.22954
O         20.99137       43.24020       65.10278
H         19.78875       40.47277       61.02674
H         17.95653       40.72859       63.22344
H         19.01718       42.95293       63.59449
H         19.93059       42.78334       62.04663
H         21.13620       40.77243       62.98114
H         20.07728       40.85095       64.44033
N         17.35043       43.00572       60.78258
C         16.29685       43.83848       60.24050
H         15.36297       43.78441       60.83828
H         16.63883       44.89360       60.21418
H         16.06793       43.50811       59.20533
H         18.25018       43.00463       60.29036
Ca        23.68167       43.74814       65.80549
O         25.60604       41.39312       64.89956
H         25.50059       41.14254       63.94759
H         26.39922       40.88525       65.20468

Ca 1.0



