%chk=holoCaM.loop4.water3.frame317.chk
%nprocshared=20
%mem=10GB
%nosave
#b3lyp/svp scf=(tight,noincore,xqc) Test 
#IOP(5/87=12) Density=Current Pop=(MK,readradii) iop(6/33=2) iop(6/42=6)

holoCaM.loop4.water3.frame317 

   -3  1 
C        122.61052       33.50948       95.93087
C        122.19494       34.67315       96.77721
O        121.17690       34.57585       97.44774
H        123.61151       33.15694       96.25665
H        121.88937       32.67006       96.04348
H        122.64874       33.80940       94.86433
N        122.93987       35.81798       96.79805
C        122.60305       36.94992       97.65578
C        123.51560       38.14448       97.38534
O        124.72786       38.00014       97.46841
C        122.74686       36.54971       99.14652
C        122.21129       37.58994      100.08722
O        122.34363       37.41631      101.41484
O        121.61561       38.56589       99.66579
H        123.76685       35.87556       96.18345
H        121.54658       37.23506       97.44940
H        123.81998       36.36530       99.36925
H        122.19078       35.62082       99.37669
N        122.98283       39.37132       97.11236
C        123.77229       40.58208       96.90307
C        123.44729       41.58792       98.01938
O        124.33534       41.94520       98.77959
C        123.48490       41.16025       95.47335
C        123.82907       40.11542       94.37468
C        124.25791       42.47406       95.24151
C        123.41444       40.54045       92.95972
H        121.96033       39.45870       97.07799
H        124.85974       40.35008       96.96085
H        122.39961       41.38373       95.39371
H        123.28749       39.17046       94.58611
H        124.91811       39.89320       94.38649
H        123.98994       43.23031       96.00748
H        125.35335       42.29564       95.27941
H        124.00070       42.92524       94.26202
H        123.96809       41.43742       92.61765
H        123.64088       39.72019       92.24559
H        122.32291       40.74493       92.92001
N        122.19558       42.11768       98.13146
C        121.80320       43.18893       99.06497
C        121.68460       42.79312      100.54542
O        121.46780       43.68257      101.35719
C        120.43917       43.76599       98.60234
C        119.35246       42.71492       98.58537
O        119.61517       41.48447       99.07472
O        118.27409       42.95685       98.07056
H        121.51302       41.81681       97.42357
H        122.55845       44.00149       98.98028
H        120.57452       44.13254       97.56058
H        120.12650       44.62883       99.22834
N        121.75497       41.50149      100.97222
C        121.60505       41.09244      102.36824
C        120.22936       41.31853      103.01083
O        120.11592       41.02701      104.19282
H        121.95958       40.77490      100.28208
H        122.36922       41.62973      102.97101
H        121.82396       40.00622      102.44604
N        119.15725       41.84529      102.34579
C        117.89367       42.19802      103.00910
C        117.09233       41.03558      103.60712
O        116.23108       41.31133      104.43187
C        116.98521       43.03187      102.07335
C        116.56737       42.33000      100.80568
O        117.02417       41.10192      100.50180
O        115.82476       42.89907      100.02272
H        119.27066       42.10008      101.36175
H        118.16498       42.86191      103.86011
H        117.52395       43.95856      101.78107
H        116.07041       43.32914      102.63079
N        117.26722       39.73948      103.22751
C        116.53655       38.61696      103.81338
C        115.62952       37.89619      102.82634
O        115.16405       36.81672      103.15732
H        117.94736       39.53234      102.48822
H        115.91276       38.92026      104.68266
H        117.29400       37.89713      104.19146
N        115.30339       38.44320      101.61948
C        114.47454       37.78769      100.60491
C        115.27217       37.67206       99.30632
O        116.45206       37.98403       99.32287
C        113.14179       38.55195      100.42824
C        113.28371       39.95141       99.81498
C        111.93488       40.59147       99.61353
N        111.63067       41.77052      100.20270
O        111.10958       40.04437       98.89636
H        115.65140       39.37982      101.40006
H        114.19514       36.76133      100.92867
H        112.63821       38.62569      101.41773
H        112.47854       37.94883       99.77164
H        113.75897       39.86609       98.81957
H        113.91891       40.58753      100.46558
H        112.31287       42.25408      100.80431
H        110.70808       42.20489      100.05189
N        114.69664       37.24467       98.13767
C        115.45934       37.09362       96.89758
C        114.97440       38.09318       95.84733
O        113.83469       38.01533       95.41458
C        115.34982       35.63213       96.38257
C        116.20902       35.41766       95.12717
C        115.77862       34.62474       97.46161
H        113.69436       37.01376       98.11958
H        116.53449       37.29320       97.09054
H        114.28830       35.41983       96.12507
H        115.88682       36.09390       94.31206
H        117.28048       35.60672       95.35205
H        116.10134       34.37591       94.75847
H        115.13553       34.71266       98.36241
H        115.67410       33.58751       97.07799
H        116.83432       34.79039       97.75969
N        115.81856       39.07133       95.40063
C        115.48073       40.06241       94.37749
C        115.38681       39.41118       92.99545
O        115.66653       38.23003       92.85623
C        116.57689       41.17139       94.39230
C        116.34765       42.34805       93.47807
N        115.25763       43.13775       93.62047
O        117.16298       42.59636       92.60207
H        116.74284       39.13523       95.84032
H        114.50889       40.52876       94.64926
H        117.54992       40.70658       94.14090
H        116.65589       41.58879       95.41439
H        114.56031       42.94867       94.35442
H        115.10812       43.93890       92.98894
N        115.00719       40.14939       91.91698
C        114.95544       39.66100       90.54286
C        116.32438       39.19342       90.06550
O        116.44566       38.03896       89.67968
C        114.41808       40.80457       89.64789
C        114.29318       40.49015       88.17815
C        113.46083       39.45262       87.72860
C        114.97918       41.27728       87.23605
C        113.31163       39.21320       86.35797
C        114.82537       41.03915       85.86871
C        113.98641       40.00819       85.42426
O        113.81528       39.77906       84.10665
H        114.72090       41.12213       92.08157
H        114.24338       38.80725       90.49215
H        115.07391       41.69369       89.77946
H        113.40840       41.08890       90.01629
H        112.91709       38.83916       88.43540
H        115.62142       42.08859       87.55674
H        112.66059       38.41673       86.02064
H        115.35076       41.66371       85.15689
H        114.24707       40.32096       83.43052
N        117.39474       40.04149       90.03699
C        118.70009       39.64659       89.49917
C        119.37588       38.55018       90.31369
O        120.35739       37.99400       89.83934
C        119.65859       40.86338       89.42086
C        119.16556       41.99701       88.49876
C        119.13205       41.63497       87.03536
O        118.74908       42.46301       86.22521
O        119.54551       40.42992       86.59609
H        117.25594       41.00645       90.36800
H        118.53008       39.24142       88.48087
H        120.66533       40.54634       89.06853
H        119.77894       41.27278       90.44935
H        119.85631       42.86052       88.61013
H        118.15690       42.33432       88.81349
N        118.94863       38.21957       91.56126
C        119.59668       37.20438       92.38332
C        119.13172       35.83479       91.95389
O        119.96031       34.99657       91.62708
C        119.29528       37.46491       93.87056
C        119.88121       38.82748       94.26381
C        119.58392       39.23090       95.66375
O        119.92155       40.34523       96.02688
O        118.93410       38.43089       96.52947
H        118.17306       38.75490       91.97582
H        120.70520       37.27353       92.28248
H        119.75936       36.67435       94.50170
H        118.19711       37.46337       94.04226
H        119.46394       39.61860       93.61109
H        120.98170       38.82087       94.12454
N        117.80335       35.54519       91.90945
C        117.30474       34.25510       91.49270
H        116.19383       34.26304       91.49760
H        117.65332       34.02856       90.46265
H        117.66050       33.46920       92.19122
H        117.11895       36.27117       92.16093
Ca       118.74335       39.52716       98.45994
O        119.15974       36.40594       98.88831
H        118.90164       35.70047       99.53314
H        118.87856       36.05578       98.00694
O        115.89012       40.70488       97.89133
H        115.32105       41.45397       97.58536
H        116.79708       40.94121       97.58239
O        119.32666       37.84460      101.34035
H        119.90222       38.41744      101.90657
H        118.94353       37.18096      101.96622

Ca 1.0



