%chk=holoCaM.loop4.water3.frame112.chk
%nprocshared=20
%mem=10GB
%nosave
#b3lyp/svp scf=(tight,noincore,xqc) Test 
#IOP(5/87=12) Density=Current Pop=(MK,readradii) iop(6/33=2) iop(6/42=6)

holoCaM.loop4.water3.frame112 

   -3  1 
C         69.77986       12.14768       11.48723
C         70.21680       11.07367       12.43631
O         70.66897       11.41416       13.51992
H         68.97466       12.74833       11.96239
H         70.63927       12.81353       11.26205
H         69.39342       11.72256       10.53867
N         70.11990        9.75173       12.10303
C         70.51175        8.68413       13.01883
C         70.41029        7.31960       12.34074
O         69.33913        6.98528       11.85108
C         69.59784        8.67962       14.27218
C         70.13138        7.80442       15.36946
O         71.24023        7.30402       15.28342
O         69.40741        7.62458       16.48963
H         69.76861        9.50554       11.16446
H         71.56363        8.87564       13.32840
H         68.57866        8.34474       13.97969
H         69.49987        9.68684       14.71938
N         71.47688        6.46654       12.31030
C         71.44513        5.14805       11.67640
C         71.59826        4.01318       12.70677
O         71.41989        2.86876       12.31733
C         72.55936        5.09994       10.56955
C         72.43321        6.26076        9.54231
C         72.65341        3.75362        9.82233
C         71.15972        6.24916        8.69349
H         72.35569        6.76719       12.75145
H         70.45572        4.98350       11.19907
H         73.53903        5.24630       11.07900
H         73.30692        6.22543        8.85379
H         72.47877        7.23246       10.07220
H         73.45122        3.80157        9.04990
H         72.94405        2.92964       10.50183
H         71.69311        3.49393        9.33184
H         71.08836        5.32425        8.08651
H         70.25740        6.34732        9.32835
H         71.18308        7.11227        7.99478
N         71.93489        4.22550       14.01968
C         72.29162        3.11705       14.91507
C         71.92315        3.31364       16.39957
O         72.17392        2.39148       17.16472
C         73.79035        2.79309       14.72035
C         74.65491        4.01786       14.76803
O         74.64773        4.80861       15.84753
O         75.33479        4.32414       13.80155
H         72.17357        5.17716       14.31902
H         71.73573        2.19926       14.62213
H         73.92497        2.33521       13.71556
H         74.12892        2.04907       15.47260
N         71.29457        4.42337       16.88668
C         70.84115        4.56917       18.27440
C         71.92553        4.66603       19.35046
O         71.56834        4.79521       20.51240
H         71.03854        5.16983       16.23707
H         70.16701        3.72002       18.51745
H         70.24064        5.50215       18.34651
N         73.25167        4.61718       19.05653
C         74.34396        4.68453       20.04332
C         74.48631        6.01648       20.81796
O         75.35295        6.07553       21.68061
C         75.69107        4.45169       19.31720
C         75.92242        5.52534       18.29086
O         74.92556        6.39547       18.01789
O         76.98708        5.59869       17.70389
H         73.50246        4.47407       18.07273
H         74.19298        3.86591       20.78002
H         75.70774        3.46152       18.81359
H         76.51833        4.47316       20.05936
N         73.72852        7.12193       20.56574
C         73.85381        8.36221       21.32683
C         74.90805        9.36777       20.84697
O         74.95400       10.42700       21.45634
H         72.96329        7.05770       19.88636
H         73.98965        8.13027       22.40693
H         72.88225        8.89720       21.25084
N         75.74609        9.16838       19.77839
C         76.65778       10.20736       19.26446
C         76.28394       10.55914       17.79459
O         76.75205        9.58913       16.90896
C         78.13269        9.74663       19.33505
C         78.62491        9.46771       20.75784
C         80.10052        9.14297       20.74885
N         80.57644        8.06296       20.08364
O         80.87801        9.87164       21.34703
H         75.72003        8.26779       19.29203
H         76.54993       11.13889       19.86109
H         78.77212       10.54679       18.90418
H         78.26428        8.82837       18.72190
H         78.06036        8.62189       21.20540
H         78.45659       10.37481       21.37850
H         79.94326        7.42953       19.57495
H         81.58712        7.85823       20.07622
N         76.70870       11.89886       17.34105
C         76.51527       12.05740       15.87631
C         77.77631       11.62416       15.11819
O         78.79806       12.28495       15.24882
C         76.15120       13.52296       15.51444
C         75.79818       13.64076       14.01986
C         74.96738       14.03690       16.34655
H         77.68761       12.13006       17.62627
H         75.64394       11.43502       15.56141
H         77.02210       14.17989       15.73315
H         76.64613       13.32082       13.38512
H         74.91678       13.00770       13.77531
H         75.56289       14.69306       13.75669
H         74.06147       13.41793       16.17393
H         75.21473       14.02292       17.42870
H         74.74096       15.08960       16.07025
N         77.78153       10.51516       14.32087
C         78.95748       10.09958       13.54851
C         79.14872       11.02112       12.35235
O         78.30477       11.86626       12.11047
C         78.77117        8.63141       13.09240
C         79.92455        8.00605       12.34995
N         81.14624        7.90130       12.92263
O         79.74549        7.56223       11.22613
H         76.93026        9.93519       14.28515
H         79.84856       10.14124       14.21276
H         77.85155        8.55615       12.47469
H         78.64246        8.02309       13.99652
H         81.31617        8.25503       13.87474
H         81.92559        7.46209       12.41067
N         80.24902       10.92245       11.55872
C         80.44055       11.71943       10.35134
C         79.41826       11.34989        9.27831
O         78.77877       12.25037        8.75202
C         81.91331       11.65621        9.88188
C         82.45180       10.29686        9.50881
C         82.21581        9.75826        8.23533
C         83.24540        9.57774       10.42045
C         82.75927        8.51811        7.88326
C         83.77064        8.33122       10.07314
C         83.53065        7.79652        8.80474
O         84.04755        6.59414        8.48206
H         80.99252       10.27237       11.83956
H         80.29888       12.79422       10.61022
H         82.51465       12.04522       10.73413
H         82.09402       12.36369        9.04361
H         81.62344       10.30342        7.51101
H         83.45084        9.97704       11.40614
H         82.57392        8.11640        6.89516
H         84.36887        7.78356       10.79041
H         83.90304        6.18826        7.61551
N         79.16432       10.04565        8.94407
C         78.16724        9.64806        7.93794
C         76.73219       10.02951        8.31187
O         75.84887        9.82426        7.48999
C         78.18446        8.12097        7.67376
C         79.53464        7.60856        7.16457
C         79.47281        6.14964        6.81641
O         78.72343        5.75730        5.93597
O         80.26090        5.26826        7.46123
H         79.70780        9.31640        9.42240
H         78.42349       10.16319        6.98532
H         77.42475        7.89591        6.89152
H         77.90457        7.57153        8.60039
H         80.28956        7.74198        7.95723
H         79.84207        8.17756        6.26052
N         76.41956       10.59768        9.50870
C         75.07913       11.01829        9.88636
C         74.97942       12.51667        9.68999
O         74.09215       12.95972        8.97436
C         74.79065       10.60830       11.34494
C         74.86943        9.08367       11.52715
C         74.62031        8.65211       12.94470
O         74.33919        9.54935       13.90789
O         74.68282        7.46844       13.23078
H         77.16219       10.78292       10.18821
H         74.30824       10.54027        9.23938
H         73.77269       10.95706       11.62852
H         75.52985       11.09217       12.02103
H         75.87743        8.72549       11.23350
H         74.12184        8.59817       10.86984
N         75.90075       13.35275       10.24456
C         75.92677       14.78357       10.03321
H         76.87554       15.05425        9.52131
H         75.08016       15.13535        9.40878
H         75.89099       15.29980       11.01413
H         76.65462       12.95983       10.81569
Ca        75.06278        8.17250       16.74546
O         72.90354       10.56921       16.18194
H         72.30130       10.56999       15.39696
H         72.36128       10.96380       16.90940
O         72.00974        8.46301       18.00967
H         71.26525        8.75992       18.59050
H         71.85046        7.49520       17.87619
O         76.97462        7.02833       15.29529
H         77.82550        6.60690       15.57031
H         76.53981        6.36257       14.71253

Ca 1.0



