%chk=holoCaM-CaMKII.loop3.water2.frame121.chk
%nprocshared=20
%mem=10GB
%nosave
#b3lyp/svp scf=(tight,noincore,xqc) Test 
#IOP(5/87=12) Density=Current Pop=(MK,readradii) iop(6/33=2) iop(6/42=6)

holoCaM-CaMKII.loop3.water2.frame121 

   0  1 
C         40.19658       42.47351       67.75983
C         40.21166       41.27574       68.66142
O         40.50714       40.18959       68.19255
H         41.20674       42.61219       67.32028
H         39.45853       42.32221       66.94656
H         39.92977       43.39628       68.31774
N         39.89871       41.40470       69.97771
C         39.94663       40.31912       70.94909
C         38.50241       40.08920       71.39017
O         38.16388       40.27809       72.54972
C         40.96825       40.78415       72.02574
C         41.47918       39.87173       73.11142
O         42.27789       40.33505       73.90939
O         41.09322       38.60151       73.28745
H         39.61780       42.33524       70.32613
H         40.32435       39.38526       70.48734
H         40.55473       41.69155       72.51734
H         41.88771       41.08608       71.47775
N         37.57528       39.76331       70.42976
C         36.11990       39.74529       70.63177
C         35.60722       38.63732       71.54863
O         34.41682       38.63368       71.83207
C         35.37105       39.65421       69.27476
C         35.63960       40.86378       68.35743
C         34.74973       40.81184       67.10298
C         34.89897       42.04907       66.19889
N         36.22329       42.13996       65.58225
H         37.92715       39.62483       69.47060
H         35.83292       40.71357       71.09789
H         34.27792       39.63860       69.48217
H         35.63678       38.70957       68.74979
H         36.70834       40.88751       68.06530
H         35.40071       41.79500       68.91552
H         33.68842       40.77573       67.43432
H         34.95981       39.89146       66.51576
H         34.68831       42.97250       66.78326
H         34.13778       41.97994       65.39002
H         36.41548       41.28038       65.01829
H         36.24225       42.96915       64.94524
H         36.96472       42.26804       66.30564
N         36.42830       37.69458       72.07786
C         36.00232       36.69432       73.05153
C         36.48111       37.13518       74.43880
O         35.65361       37.18375       75.33880
C         36.35427       35.24772       72.58325
C         37.74714       35.07980       72.03680
O         37.92186       34.80688       70.85992
O         38.78825       35.40141       72.80400
H         37.42218       37.72637       71.83754
H         34.89241       36.67588       73.14628
H         35.65801       34.99235       71.75349
H         36.16331       34.52970       73.40977
N         37.74129       37.61418       74.65703
C         38.17224       38.24857       75.89572
C         39.35581       37.57114       76.55308
O         39.78006       38.05509       77.59282
H         38.41073       37.62361       73.89240
H         37.34776       38.28093       76.63870
H         38.45523       39.29867       75.66322
N         39.92059       36.43644       76.04983
C         40.96295       35.69620       76.75826
C         42.29041       36.43032       76.92467
O         43.12495       35.90636       77.65154
C         41.17123       34.30468       76.11389
C         41.62942       34.30431       74.67303
N         41.78826       33.12520       74.03021
O         41.84473       35.34895       74.07759
H         39.53117       36.02701       75.19108
H         40.57816       35.50703       77.78505
H         40.19985       33.76623       76.15406
H         41.90421       33.72728       76.71770
H         41.60386       32.23480       74.51472
H         42.09001       33.09703       73.04674
N         42.58305       37.61230       76.30649
C         43.84138       38.31644       76.52240
C         44.75253       38.31252       75.31303
O         45.83822       38.85819       75.41900
H         41.90324       38.03247       75.65740
H         44.42359       37.85457       77.34755
H         43.62169       39.36363       76.82571
N         44.39174       37.72604       74.13305
C         45.27643       37.72279       72.96858
C         44.52805       37.39315       71.68563
O         43.35664       37.05810       71.72281
C         46.47499       36.75602       73.15458
C         46.07385       35.29588       73.25571
C         45.43605       34.79524       74.40499
C         46.35527       34.41311       72.19627
C         45.09177       33.44125       74.49200
C         45.99906       33.06342       72.28066
C         45.37010       32.57150       73.42774
O         45.04198       31.26509       73.49630
H         43.45522       37.32070       74.05163
H         45.65048       38.76066       72.82921
H         47.08560       37.02772       74.04090
H         47.14374       36.88544       72.27716
H         45.21883       35.44388       75.24248
H         46.84178       34.76926       71.29713
H         44.61055       33.06857       75.38756
H         46.21373       32.39869       71.45288
H         44.61401       30.88025       74.27468
N         45.17056       37.53287       70.48714
C         44.51245       37.28841       69.20942
C         45.27718       36.27738       68.37496
O         46.39413       35.91181       68.70199
C         44.32563       38.62598       68.42922
C         45.67602       39.32996       68.12481
C         43.37353       39.54265       69.21126
C         45.53636       40.55470       67.21880
H         46.14262       37.86637       70.48030
H         43.50675       36.84978       69.37918
H         43.83565       38.39093       67.46108
H         46.34823       38.61785       67.60094
H         46.16980       39.64660       69.06816
H         43.12434       40.45342       68.63256
H         42.42542       39.00390       69.40887
H         43.81485       39.84614       70.18341
H         46.54343       40.97720       67.01702
H         45.07224       40.26648       66.25166
H         44.93168       41.35100       67.69702
N         44.68506       35.79574       67.24760
C         45.32077       34.90993       66.28296
C         45.28462       35.57575       64.91303
O         44.80819       36.69269       64.80535
C         44.56757       33.56818       66.26947
O         43.23059       33.75728       65.89420
H         43.71802       36.08282       67.05037
H         46.37822       34.70721       66.55752
H         44.60946       33.12628       67.28999
H         45.06091       32.86760       65.56019
H         42.82603       32.85285       65.84426
N         45.74983       34.93334       63.80645
C         45.61873       35.49205       62.46222
C         44.15342       35.69826       62.10837
O         43.79370       36.77894       61.66158
C         46.26138       34.55452       61.43614
H         46.17720       34.00289       63.91894
H         46.16077       36.46263       62.40039
H         45.76907       33.55916       61.44198
H         46.17709       34.99314       60.41826
H         47.33948       34.42498       61.67030
N         43.24859       34.70000       62.32072
C         41.82564       34.79296       62.00062
C         41.17490       36.01154       62.62495
O         40.55320       36.78277       61.90760
C         41.09882       33.53025       62.48502
H         43.59387       33.82693       62.75024
H         41.70493       34.85407       60.89617
H         41.19161       33.42010       63.58786
H         40.01999       33.58155       62.22440
H         41.53417       32.62927       62.00411
N         41.28814       36.25053       63.95888
C         40.67130       37.39459       64.62559
C         41.14190       38.69459       63.99656
O         40.30861       39.48580       63.57640
C         40.99285       37.38342       66.13284
C         40.39845       36.15623       66.84737
C         40.73898       36.16092       68.30700
O         41.36605       35.23377       68.79203
O         40.33789       37.17584       69.09293
H         41.85714       35.59408       64.51187
H         39.56444       37.33450       64.52096
H         40.55805       38.29303       66.59272
H         42.09027       37.41460       66.27083
H         40.78321       35.21672       66.40013
H         39.29307       36.16374       66.74037
N         42.46754       38.96303       63.86182
C         42.95680       40.16705       63.22858
H         44.06677       40.14304       63.18089
H         42.56305       40.23778       62.19167
H         42.64093       41.05742       63.81071
H         43.15358       38.27636       64.19133
Ca        39.83973       37.23824       72.08875
O         40.32481       32.92370       70.88612
H         40.03986       32.27391       71.57658
H         39.79247       32.68588       70.08588
O         43.15922       34.24379       70.75502
H         43.50325       33.34138       70.53890
H         43.47801       34.42013       71.67435

Ca 1.0



