%chk=holoCaM-CaMKII.loop2.water2.frame489.chk
%nprocshared=20
%mem=10GB
%nosave
#b3lyp/svp scf=(tight,noincore,xqc) Test 
#IOP(5/87=12) Density=Current Pop=(MK,readradii) iop(6/33=2) iop(6/42=6)

holoCaM-CaMKII.loop2.water2.frame489 

   -2  1 
C         85.09695       81.27158      104.42814
C         84.35209       81.74919      105.64474
O         84.97640       82.26234      106.56166
H         85.84322       80.50265      104.71239
H         84.40728       80.83385      103.67430
H         85.61883       82.13052      103.95373
N         82.99602       81.65256      105.69734
C         82.19488       82.20300      106.78390
C         82.36633       81.43041      108.08536
O         82.10746       80.23537      108.10755
C         80.71118       82.20665      106.36804
C         79.84321       82.93808      107.34735
O         80.29634       84.05630      107.94622
O         78.66492       82.63944      107.44823
H         82.50860       81.24555      104.88335
H         82.49458       83.26654      106.91782
H         80.33798       81.16827      106.22371
H         80.61492       82.73601      105.39630
N         82.75010       82.07851      109.22346
C         82.85993       81.44844      110.53636
C         81.94390       82.09916      111.58016
O         81.92465       81.61665      112.70405
C         84.31590       81.54814      111.00720
H         82.96431       83.07850      109.15842
H         82.58657       80.37345      110.47205
H         84.62071       82.61393      111.10253
H         84.44724       81.05252      111.99284
H         84.98840       81.05280      110.27526
N         81.20041       83.21372      111.30792
C         80.40374       83.93667      112.30364
C         78.95398       84.16803      111.87581
O         78.20722       84.70780      112.68173
C         81.10366       85.27845      112.63655
C         81.62924       85.97233      111.40991
O         82.83236       86.14493      111.29108
O         80.82341       86.31170      110.39129
H         81.25536       83.63159      110.37197
H         80.34267       83.36294      113.25437
H         81.98539       85.04910      113.27523
H         80.43730       85.94551      113.22495
N         78.46376       83.78916      110.65933
C         77.06819       83.96351      110.27167
C         76.58495       85.40457      110.17365
O         75.40030       85.58084      109.92561
H         79.07576       83.30444      109.99534
H         76.43429       83.43078      111.01372
H         76.89987       83.48646      109.28295
N         77.39997       86.48164      110.37683
C         76.89593       87.85448      110.41746
C         76.32051       88.36161      109.09501
O         75.69263       89.41141      109.11884
C         77.97215       88.82314      110.97132
C         79.23810       88.93251      110.15405
N         80.23867       89.73877      110.57267
O         79.37865       88.28960      109.12742
H         78.38910       86.32241      110.59032
H         76.06334       87.86407      111.15604
H         78.26172       88.47360      111.98634
H         77.53188       89.83820      111.07297
H         80.14957       90.28296      111.44230
H         81.10788       89.81575      110.02877
N         76.49936       87.70466      107.91108
C         75.90901       88.14597      106.65206
C         76.92625       88.70414      105.67343
O         76.53166       89.02536      104.56147
H         77.08488       86.85968      107.88447
H         75.15717       88.94971      106.81524
H         75.37130       87.28552      106.20063
N         78.21904       88.94678      106.03983
C         79.17552       89.66978      105.20702
C         80.57226       89.08328      105.30468
O         81.02709       88.76943      106.39512
C         79.26319       91.15585      105.63635
C         77.93780       91.90278      105.45193
O         79.74007       91.30184      106.95229
H         78.49645       88.74400      107.00219
H         78.84675       89.67857      104.14310
H         79.99672       91.64957      104.95980
H         79.08743       90.87583      107.56492
H         77.60087       91.82496      104.39537
H         77.15014       91.48791      106.11425
H         78.07834       92.97629      105.69580
N         81.35832       89.04478      104.19653
C         82.77387       88.68094      104.21590
C         83.55244       89.71528      105.02894
O         83.41880       90.90201      104.76468
C         83.33512       88.60224      102.75997
C         82.55806       87.53532      101.93656
C         84.84343       88.26729      102.77720
C         82.92741       87.51934      100.45284
H         80.93911       89.35390      103.30725
H         82.89635       87.67082      104.66193
H         83.20010       89.59736      102.27947
H         81.46966       87.73935      101.96878
H         82.71980       86.52573      102.37298
H         85.41353       89.04064      103.32695
H         85.01925       87.28142      103.25971
H         85.27210       88.25039      101.75702
H         82.29126       86.77716       99.92638
H         82.74520       88.51992      100.00528
H         83.98348       87.22824      100.29264
N         84.45029       89.31562      105.97568
C         85.32040       90.22676      106.72113
C         86.74378       90.05816      106.22276
O         86.96656       89.22165      105.36339
C         85.24578       89.93153      108.23371
C         83.86021       90.10166      108.78222
O         82.94899       89.40294      108.37374
O         83.62163       91.00738      109.74964
H         84.59730       88.30866      106.10823
H         85.02958       91.28413      106.53824
H         85.92438       90.62171      108.77937
H         85.58129       88.88996      108.43357
N         87.76126       90.85311      106.66523
C         89.10850       90.72412      106.11854
C         89.74749       89.38383      106.48171
O         90.21354       88.72795      105.55837
C         90.00577       91.93692      106.44662
C         91.32130       91.84953      105.69832
C         91.34298       91.79402      104.28886
C         92.53853       91.81454      106.39828
C         92.55338       91.68833      103.60138
C         93.74928       91.71661      105.70360
C         93.75615       91.64918      104.30760
H         87.55883       91.60119      107.34515
H         88.99707       90.75895      105.01380
H         90.17984       92.02863      107.53319
H         89.48696       92.86469      106.12113
H         90.42694       91.82580      103.71368
H         92.55189       91.85956      107.47975
H         92.55661       91.63584      102.51984
H         94.68367       91.68936      106.24793
H         94.69276       91.56779      103.77178
N         89.78032       88.86402      107.75609
C         90.32099       87.54534      108.09684
C         89.72063       86.35021      107.35630
O         90.15667       85.23796      107.61833
C         89.97050       87.38607      109.58425
C         90.02808       88.80642      110.07707
C         89.32073       89.55153      108.94826
H         91.42046       87.58294      107.92997
H         88.90245       87.07462      109.68183
H         90.59910       86.65413      110.13557
H         89.59707       88.97825      111.08635
H         91.10124       89.10728      110.08818
H         88.21540       89.46189      109.01181
H         89.63491       90.60649      109.01640
N         88.71014       86.48865      106.45095
C         88.05042       85.38392      105.77729
C         88.40213       85.43347      104.30503
O         88.94651       84.46464      103.79360
C         86.52630       85.46543      106.03246
C         86.25741       85.61639      107.53913
C         84.81156       85.59071      107.91199
O         84.44772       84.83853      108.79614
O         83.91708       86.42798      107.35720
H         88.33157       87.41327      106.24668
H         88.40431       84.41048      106.18547
H         86.04279       84.55118      105.62751
H         86.08890       86.34879      105.51727
H         86.65763       86.59449      107.88078
H         86.78360       84.81084      108.09789
N         88.18072       86.55910      103.57152
C         88.59716       86.68285      102.19311
H         89.69710       86.53881      102.11900
H         88.07640       85.93074      101.56647
H         88.35447       87.70021      101.81697
H         87.73690       87.37429      104.00952
Ca        81.97726       86.59040      108.48247
O         79.07475       86.01265      106.39374
H         78.31938       85.37581      106.32768
H         79.35270       86.16596      105.45705
O         81.95250       85.25535      105.18493
H         82.92942       85.18203      105.04198
H         81.55620       85.05655      104.29993

Ca 1.0



