%chk=holoCaM-CaMKII.loop3.water1.frame411.chk
%nprocshared=20
%mem=10GB
%nosave
#b3lyp/svp scf=(tight,noincore,xqc) Test 
#IOP(5/87=12) Density=Current Pop=(MK,readradii) iop(6/33=2) iop(6/42=6)

holoCaM-CaMKII.loop3.water1.frame411 

   0  1 
C         40.29645       39.18818       47.08357
C         39.54817       37.89685       47.22274
O         39.74191       37.21123       48.21670
H         41.38735       38.98550       47.06808
H         40.01899       39.71747       46.14788
H         40.05834       39.84658       47.94520
N         38.67063       37.50042       46.25797
C         37.89227       36.27587       46.33827
C         38.29832       35.35092       45.18990
O         38.10189       35.70870       44.03683
C         36.39406       36.65741       46.35021
C         35.56135       35.43685       46.47088
O         34.93467       35.15306       47.61679
O         35.59862       34.60354       45.59128
H         38.53757       38.09808       45.42755
H         38.10420       35.74897       47.29654
H         36.10093       37.21824       45.43765
H         36.21095       37.30394       47.23729
N         38.94436       34.17048       45.44648
C         39.55947       33.35441       44.39496
C         38.59371       32.49994       43.57821
O         39.03465       31.95713       42.57452
C         40.68828       32.46894       44.98544
C         40.20012       31.30759       45.87812
C         41.40058       30.61264       46.55098
C         41.00873       29.47920       47.51696
N         40.40039       28.34156       46.82746
H         39.15827       33.94972       46.42959
H         40.06652       34.06471       43.70409
H         41.35916       33.13473       45.57321
H         41.29058       32.03306       44.15839
H         39.62916       30.58483       45.25929
H         39.51935       31.69058       46.65990
H         41.95319       31.37346       47.14496
H         42.09539       30.21546       45.77992
H         40.31774       29.85852       48.30124
H         41.93465       29.12891       48.02624
H         41.05059       27.97901       46.09278
H         40.22499       27.58047       47.52304
H         39.48780       28.61254       46.39867
N         37.30830       32.26091       43.97162
C         36.40702       31.34854       43.26174
C         35.13074       32.06097       42.81491
O         34.87039       32.07581       41.61933
C         36.20100       30.06102       44.09340
C         35.78779       30.25417       45.52474
O         34.69439       30.70307       45.80341
O         36.61952       29.88239       46.51647
H         36.97707       32.67779       44.85101
H         36.88319       30.98027       42.32447
H         37.18703       29.54623       44.12193
H         35.48800       29.38142       43.57839
N         34.33318       32.73568       43.68993
C         33.21607       33.57753       43.27790
C         31.98738       33.46610       44.16210
O         31.07947       34.26208       43.96558
H         34.60733       32.76364       44.67348
H         32.93860       33.41909       42.21307
H         33.55939       34.62940       43.37930
N         31.87640       32.54839       45.16715
C         30.73345       32.51605       46.08095
C         30.66857       33.73095       47.01864
O         29.67834       33.85695       47.72596
C         30.72177       31.21205       46.90836
C         31.97264       31.00647       47.73125
N         32.69763       29.87135       47.60361
O         32.32779       31.86054       48.52872
H         32.60839       31.83795       45.27231
H         29.80475       32.50863       45.46676
H         30.59051       30.35238       46.21554
H         29.84012       31.22284       47.58370
H         32.41604       29.13166       46.94407
H         33.54381       29.72636       48.17196
N         31.66389       34.66255       47.08426
C         31.59008       35.85729       47.91313
C         31.62147       35.58185       49.40676
O         30.71410       36.00929       50.10409
H         32.49890       34.56132       46.49174
H         30.68167       36.43732       47.63799
H         32.46999       36.49812       47.68710
N         32.69239       34.94791       49.96635
C         32.92510       34.77564       51.40560
C         34.33391       34.22539       51.62740
O         34.69532       33.25144       50.98233
C         31.81270       33.95538       52.11158
C         31.56176       32.55316       51.60627
C         32.49667       31.52341       51.80816
C         30.34682       32.25190       50.96374
C         32.23432       30.22840       51.35416
C         30.08323       30.95453       50.51666
C         31.02667       29.94000       50.70424
O         30.76343       28.69618       50.25681
H         33.41837       34.61836       49.32164
H         32.89671       35.78044       51.88301
H         30.87302       34.53729       52.02066
H         32.02560       33.90693       53.20133
H         33.42361       31.70937       52.33026
H         29.60054       33.02083       50.80559
H         32.96836       29.44936       51.51375
H         29.14590       30.73967       50.01958
H         31.39569       27.97035       50.35691
N         35.20729       34.84189       52.48302
C         36.61802       34.46334       52.59270
C         36.96847       33.86677       53.95005
O         36.55738       34.38918       54.97659
C         37.56826       35.65189       52.24161
C         37.50919       36.80999       53.27641
C         37.28300       36.14787       50.81047
C         38.56331       37.89382       53.04219
H         34.87109       35.63442       53.04937
H         36.85322       33.68549       51.84127
H         38.60584       35.24544       52.25501
H         37.72155       36.41002       54.28781
H         36.50206       37.27675       53.28818
H         37.35252       35.30638       50.08930
H         36.26753       36.59282       50.74170
H         38.02500       36.90618       50.49160
H         38.39909       38.42491       52.08424
H         38.50394       38.64452       53.85880
H         39.58099       37.44705       53.05105
N         37.83098       32.80970       54.00579
C         38.37591       32.23428       55.23287
C         39.88458       32.48284       55.28142
O         40.38843       33.19061       54.42656
C         38.02998       30.73720       55.27646
O         36.63919       30.55745       55.24638
H         38.17672       32.41339       53.11897
H         37.93689       32.71444       56.13484
H         38.44247       30.24659       56.18532
H         38.47293       30.21929       54.39941
H         36.29987       30.81404       56.14439
N         40.66617       31.97297       56.27678
C         42.09036       32.28737       56.43331
C         42.94531       31.91022       55.23055
O         43.62098       32.78249       54.70229
C         42.65242       31.59441       57.67932
H         40.21948       31.37512       56.98765
H         42.18816       33.38443       56.59760
H         42.08623       31.91430       58.57914
H         42.57927       30.48993       57.58495
H         43.71947       31.87175       57.82156
N         42.98911       30.63125       54.75916
C         43.84630       30.20983       53.64750
C         43.59824       31.04926       52.41453
O         44.54216       31.56257       51.82987
C         43.59260       28.73458       53.31141
H         42.38101       29.92944       55.20859
H         44.91531       30.30912       53.94051
H         43.80784       28.09875       54.19545
H         42.53666       28.57355       53.00381
H         44.25626       28.41232       52.47947
N         42.32478       31.25893       51.99869
C         41.95261       32.05277       50.83587
C         42.56866       33.44342       50.89498
O         43.26465       33.82221       49.96282
C         40.41584       32.08000       50.77142
C         39.85035       32.71572       49.50788
C         38.36281       32.49640       49.40128
O         37.72698       32.89059       48.29130
O         37.72747       31.95948       50.29498
H         41.57212       30.83540       52.56501
H         42.32820       31.53951       49.92138
H         39.99921       32.58663       51.66755
H         40.08174       31.01725       50.77561
H         40.33244       32.23870       48.64143
H         40.07596       33.80380       49.47742
N         42.40198       34.23614       51.98554
C         43.03048       35.53207       52.11554
H         44.13471       35.42558       52.04631
H         42.66854       36.21540       51.32006
H         42.78516       35.97101       53.10693
H         41.84100       33.89394       52.76862
Ca        35.49522       33.06896       48.16823
O         35.63900       30.00826       49.74155
H         35.32741       29.39948       50.45687
H         36.26295       29.45906       49.20387

Ca 1.0



