%chk=holoCaM.loop1.water2.frame316.chk
%nprocshared=20
%mem=10GB
%nosave
#b3lyp/svp scf=(tight,noincore,xqc) Test 
#IOP(5/87=12) Density=Current Pop=(MK,readradii) iop(6/33=2) iop(6/42=6)

holoCaM.loop1.water2.frame316 

   0  1 
C          4.32178       29.16847       45.45980
C          2.93882       29.36598       44.91623
O          2.42053       28.48822       44.24091
H          4.98788       29.96821       45.07358
H          4.29449       29.22593       46.56943
H          4.72952       28.17994       45.16255
N          2.26860       30.51196       45.20394
C          0.90570       30.77307       44.76491
C          0.80616       30.89981       43.24152
O          1.34959       31.83579       42.67248
C          0.39382       32.03832       45.47334
C         -0.93173       32.48221       44.96741
O         -1.90306       31.74925       45.02278
O         -1.03247       33.70319       44.42101
H          2.74103       31.20409       45.80778
H          0.27503       29.92912       45.10731
H          1.11162       32.87042       45.30660
H          0.32702       31.84792       46.56749
N          0.11265       29.96527       42.52805
C         -0.04109       29.97305       41.07330
C         -1.10831       30.98732       40.61953
O         -0.81050       31.86253       39.82147
C         -0.40400       28.53211       40.61396
C         -0.33831       28.32973       39.09252
C         -0.65716       26.86997       38.72201
C         -0.48816       26.62308       37.21575
N         -0.82315       25.24153       36.86649
H         -0.25282       29.15289       43.04475
H          0.94820       30.20131       40.61611
H         -1.40623       28.24060       40.99723
H          0.33911       27.83380       41.06236
H          0.69123       28.57336       38.74956
H         -1.05774       29.00571       38.58306
H         -1.70187       26.63635       39.02373
H          0.02997       26.18582       39.26819
H          0.56793       26.82593       36.92790
H         -1.14727       27.31354       36.64536
H         -1.82636       25.04790       37.09030
H         -0.67436       25.10143       35.84078
H         -0.21035       24.57425       37.38943
N         -2.39294       30.87097       41.06961
C         -3.56515       31.64705       40.62189
C         -3.53762       33.13959       40.94672
O         -4.45738       33.82810       40.52329
C         -4.86314       31.11105       41.29806
C         -5.11866       29.65205       41.06868
O         -4.70009       28.75845       41.98223
O         -5.53390       29.26009       39.99029
H         -2.54525       30.10119       41.71382
H         -3.64613       31.52317       39.52096
H         -5.76629       31.66690       40.96279
H         -4.78249       31.28762       42.39221
N         -2.58261       33.71403       41.72329
C         -2.63585       35.11367       42.12548
C         -3.81582       35.40280       43.03887
O         -4.55233       36.34437       42.78220
H         -1.79883       33.14602       42.06995
H         -2.64683       35.77771       41.23298
H         -1.71776       35.35260       42.69846
N         -4.03945       34.62533       44.13759
C         -5.07708       34.87033       45.13710
C         -4.49678       34.96516       46.55559
O         -5.27134       35.09876       47.49309
C         -6.19533       33.80613       45.01978
C         -5.80690       32.36613       45.23275
O         -4.54813       32.00710       45.52712
O         -6.65932       31.49955       45.12796
H         -3.44538       33.79914       44.26503
H         -5.58194       35.84192       44.93912
H         -6.62857       33.88722       43.99926
H         -6.99917       34.05540       45.74685
N         -3.14868       34.95797       46.79037
C         -2.55209       35.10749       48.11107
C         -2.69472       33.90246       49.02011
O         -2.19659       33.98325       50.13552
H         -2.49444       34.92831       46.00078
H         -2.96955       36.01249       48.60316
H         -1.45854       35.26834       47.98612
N         -3.32622       32.75540       48.63692
C         -3.44085       31.57657       49.49176
C         -2.80303       30.35503       48.83987
O         -2.46344       30.38854       47.66337
C         -4.92476       31.31982       49.85931
C         -5.47404       32.39603       50.80807
O         -5.72573       31.21972       48.70680
H         -3.74198       32.70337       47.70123
H         -2.87882       31.73459       50.43897
H         -5.00315       30.35964       50.41338
H         -5.89808       32.13521       48.36106
H         -6.53290       32.17016       51.05718
H         -4.88730       32.40368       51.75132
H         -5.42311       33.40406       50.34525
N         -2.53768       29.25667       49.60369
C         -1.85371       28.05242       49.13997
C         -2.70432       26.82039       49.45194
O         -3.17553       26.65512       50.56940
C         -0.41131       28.00187       49.75004
C          0.46182       29.06929       49.01746
C          0.22937       26.60482       49.62149
C          1.92302       29.15081       49.46336
H         -2.77515       29.29953       50.60807
H         -1.71040       28.07357       48.03685
H         -0.46468       28.22253       50.83912
H          0.01094       30.07342       49.16173
H          0.46924       28.85170       47.92449
H         -0.37970       25.84333       50.15029
H          0.34423       26.31247       48.56302
H          1.22469       26.57722       50.10895
H          2.43372       29.95043       48.88376
H          1.98962       29.39023       50.54364
H          2.46610       28.20703       49.25019
N         -2.86004       25.87383       48.48486
C         -3.59891       24.62067       48.58511
C         -2.61615       23.45804       48.64253
O         -1.42123       23.69350       48.72389
C         -4.50616       24.46869       47.32845
C         -5.54133       25.59913       47.24124
O         -3.68791       24.40655       46.17849
H         -2.36399       26.02411       47.60504
H         -4.22022       24.58984       49.50722
H         -5.08517       23.52545       47.38634
H         -4.16857       24.78781       45.39950
H         -5.03781       26.57735       47.14471
H         -6.19126       25.44430       46.35322
H         -6.18440       25.60357       48.14511
N         -3.04714       22.16946       48.59322
C         -2.15777       21.00874       48.57437
C         -1.22030       21.04763       47.36444
O         -0.01634       20.98847       47.56400
C         -3.00031       19.70493       48.60931
C         -2.14191       18.44274       48.49361
O         -3.70012       19.63330       49.82817
H         -4.06353       22.00607       48.55132
H         -1.53212       21.01416       49.49672
H         -3.71490       19.68526       47.75267
H         -4.53420       20.16069       49.73347
H         -1.61262       18.41303       47.51805
H         -1.39743       18.40055       49.31636
H         -2.79341       17.54470       48.55258
N         -1.69736       21.13777       46.08763
C         -0.82602       21.14972       44.90519
C          0.19704       22.27566       44.95703
O          1.38102       22.00175       44.81413
C         -1.64744       21.25503       43.59842
C         -2.39674       19.94649       43.28851
C         -3.08028       19.99820       41.91084
C         -3.58723       18.62083       41.44202
N         -4.64134       18.07756       42.29817
H         -2.71771       21.20472       45.95611
H         -0.25329       20.19611       44.85767
H         -0.93291       21.41682       42.76017
H         -2.33987       22.12575       43.63225
H         -3.13970       19.72566       44.08302
H         -1.64419       19.12815       43.26427
H         -2.33105       20.32519       41.15662
H         -3.90828       20.74016       41.91870
H         -2.73336       17.90732       41.40374
H         -3.98342       18.72533       40.40747
H         -4.28926       17.92134       43.26882
H         -5.46227       18.72456       42.31026
H         -4.94431       17.15456       41.91015
N         -0.18429       23.55906       45.18393
C          0.74647       24.69143       45.26978
C          1.84698       24.43328       46.28973
O          2.99802       24.72797       46.00145
C         -0.02132       25.96017       45.68079
C         -1.01008       26.43195       44.61032
C         -1.98167       27.43025       45.18303
O         -3.08151       27.04475       45.52723
O         -1.83341       28.74183       44.99137
H         -1.18885       23.72134       45.35170
H          1.22672       24.87787       44.28353
H          0.67244       26.80325       45.89378
H         -0.55214       25.70565       46.60872
H         -1.61550       25.58867       44.21385
H         -0.45034       26.84211       43.74124
N          1.56408       23.85931       47.48987
C          2.54738       23.58516       48.51645
H          3.55686       23.95649       48.24552
H          2.23237       24.07531       49.46159
H          2.60421       22.48913       48.68762
H          0.60334       23.56897       47.67710
Ca        -3.46788       29.52866       43.71415
O         -6.22248       27.60431       44.47846
H         -6.59724       27.93516       43.62483
H         -7.01011       27.51659       45.07157
O         -5.67241       29.05891       47.01382
H         -5.14036       28.85184       47.82292
H         -6.59055       28.76743       47.24349

Ca 1.0



