%chk=holoCaM-CaMKII.loop3.water2.frame218.chk
%nprocshared=20
%mem=10GB
%nosave
#b3lyp/svp scf=(tight,noincore,xqc) Test 
#IOP(5/87=12) Density=Current Pop=(MK,readradii) iop(6/33=2) iop(6/42=6)

holoCaM-CaMKII.loop3.water2.frame218 

   0  1 
C         35.21989       68.48911       35.84632
C         35.52806       68.49875       34.37860
O         35.43482       69.54232       33.75006
H         34.17856       68.13958       36.01052
H         35.91493       67.80252       36.37675
H         35.33982       69.50638       36.27162
N         35.86659       67.33915       33.75948
C         36.18495       67.22399       32.34758
C         34.98348       66.60663       31.64933
O         34.94630       65.41686       31.37170
C         37.46570       66.39454       32.20492
C         37.71628       66.13705       30.76786
O         37.59117       65.00334       30.34776
O         37.90173       67.16092       29.92152
H         35.88830       66.47355       34.32163
H         36.37069       68.22007       31.87743
H         37.31414       65.41803       32.71306
H         38.33089       66.91488       32.66708
N         33.92200       67.40364       31.39483
C         32.64401       66.94238       30.86232
C         32.75127       66.40525       29.42331
O         32.16078       65.37994       29.11625
C         31.64570       68.10076       31.00286
C         31.36009       68.40899       32.50023
C         30.39871       69.59645       32.59037
C         29.67777       69.76375       33.93608
N         30.55646       70.19534       35.02216
H         34.02504       68.40348       31.63939
H         32.25972       66.11643       31.49628
H         30.68413       67.80557       30.53334
H         32.03264       69.00649       30.48222
H         32.27756       68.63174       33.09379
H         30.89296       67.50035       32.93916
H         29.59558       69.43574       31.84376
H         30.93986       70.53180       32.32273
H         29.14613       68.82501       34.21566
H         28.90782       70.54897       33.77559
H         29.95869       70.56925       35.79652
H         31.11674       69.39224       35.38585
H         31.18768       70.96349       34.69958
N         33.53085       67.04485       28.51541
C         33.84036       66.59808       27.14351
C         34.51989       65.22951       27.06909
O         34.35470       64.56317       26.05372
C         34.70811       67.64118       26.35796
C         35.85817       68.25137       27.13018
O         35.62039       68.95695       28.09206
O         37.14374       68.16133       26.76852
H         33.92495       67.90504       28.87635
H         32.88379       66.49629       26.57900
H         34.06091       68.49781       26.08622
H         35.07418       67.18561       25.41000
N         35.33206       64.76345       28.05909
C         36.00915       63.47405       27.98574
C         37.40034       63.54782       27.39437
O         37.96498       62.48850       27.15359
H         35.47208       65.33927       28.89514
H         35.39282       62.74973       27.40527
H         36.11698       63.05073       29.00539
N         38.03577       64.73183       27.13578
C         39.35856       64.76088       26.51537
C         40.50270       64.43190       27.48896
O         41.64508       64.33763       27.06262
C         39.57264       66.06174       25.71641
C         40.10454       67.25590       26.44564
N         40.71779       68.22770       25.73837
O         40.05285       67.33059       27.65423
H         37.55990       65.62031       27.34306
H         39.34767       63.97903       25.72494
H         38.65055       66.34416       25.16050
H         40.35480       65.82273       24.97209
H         40.79913       68.14696       24.71620
H         41.15721       69.02912       26.20231
N         40.24866       64.23570       28.81310
C         41.20881       63.81836       29.81871
C         41.86698       64.96624       30.56341
O         42.63279       64.69181       31.47500
H         39.28737       64.28837       29.12377
H         41.96292       63.13796       29.37402
H         40.64680       63.22544       30.57575
N         41.63156       66.26662       30.23632
C         42.25362       67.41406       30.88588
C         41.20116       68.38602       31.38652
O         40.24540       68.67442       30.67957
C         43.16256       68.18389       29.90176
C         44.36135       67.39719       29.42103
C         44.49336       67.06669       28.06158
C         45.37832       67.01784       30.31713
C         45.60828       66.35148       27.61041
C         46.49751       66.31171       29.86109
C         46.61145       65.96844       28.50685
O         47.67692       65.27352       28.05799
H         40.99101       66.45957       29.47177
H         42.88295       67.09487       31.74215
H         43.55319       69.09453       30.41021
H         42.54976       68.52203       29.03904
H         43.73186       67.35877       27.34952
H         45.31497       67.27859       31.36605
H         45.69284       66.09528       26.56163
H         47.27739       66.03260       30.55910
H         48.38159       64.97223       28.64977
N         41.42888       69.05684       32.54741
C         40.59815       70.14440       33.04337
C         41.27741       71.46395       32.68409
O         42.45932       71.60742       32.96726
C         40.49583       70.09616       34.60404
C         40.17465       68.69189       35.17500
C         39.41846       71.10947       35.06176
C         40.47019       68.57182       36.68141
H         42.30747       68.86345       33.04853
H         39.57308       70.08399       32.60455
H         41.49325       70.38392       35.00784
H         40.81171       67.91763       34.69971
H         39.11376       68.44733       34.96532
H         39.63508       72.12784       34.68999
H         38.42268       70.81150       34.66023
H         39.34281       71.17609       36.16240
H         40.09089       67.59556       37.04769
H         41.56858       68.59650       36.86726
H         40.00031       69.37132       37.28687
N         40.57091       72.50189       32.15482
C         41.12292       73.84850       31.98615
C         40.41263       74.82992       32.91236
O         39.54602       74.42680       33.66472
C         41.03045       74.29950       30.51883
O         39.70095       74.37454       30.09284
H         39.57568       72.35723       31.94961
H         42.19778       73.87027       32.26716
H         41.62340       73.62392       29.86207
H         41.48149       75.30445       30.39015
H         39.44602       73.45289       29.84775
N         40.77480       76.14245       32.92091
C         40.22628       77.18581       33.79157
C         38.72981       77.40875       33.60596
O         38.00929       77.39588       34.59450
C         41.00514       78.48262       33.53137
H         41.52965       76.41696       32.27741
H         40.39864       76.91168       34.85632
H         42.07102       78.31043       33.80006
H         40.96294       78.76306       32.45643
H         40.62541       79.32522       34.14402
N         38.18760       77.60317       32.37283
C         36.74921       77.75339       32.13436
C         35.97340       76.57973       32.70642
O         34.89217       76.76802       33.24792
C         36.49121       77.82786       30.62386
H         38.82506       77.59374       31.56253
H         36.37828       78.69692       32.59457
H         36.79797       76.87833       30.13221
H         35.41428       78.00592       30.41471
H         37.07866       78.65958       30.18097
N         36.48160       75.32547       32.59088
C         35.81329       74.12696       33.07543
C         35.84015       74.05349       34.59713
O         34.90834       73.52500       35.18702
C         36.45044       72.88281       32.43618
C         36.42482       72.97161       30.89632
C         36.90277       71.68860       30.29511
O         36.10408       70.79486       30.08264
O         38.21547       71.44315       30.15069
H         37.39264       75.22368       32.12264
H         34.75358       74.14645       32.73429
H         35.86929       71.99034       32.75071
H         37.49694       72.76874       32.78300
H         37.03999       73.81141       30.50543
H         35.38603       73.16340       30.54929
N         36.86847       74.60303       35.29902
C         36.88955       74.70784       36.73870
H         36.04950       75.35789       37.06082
H         36.81018       73.71001       37.21531
H         37.83918       75.19058       37.06209
H         37.65568       75.01060       34.79545
Ca        38.23524       68.91749       28.58208
O         40.57088       70.56897       28.18273
H         40.41432       71.53275       28.02789
H         41.48929       70.41486       27.85089
O         37.93007       70.96862       26.46577
H         38.52007       71.02982       25.67334
H         37.09893       71.43581       26.20025

Ca 1.0



