%chk=holoCaM.loop3.water2.frame448.chk
%nprocshared=20
%mem=10GB
%nosave
#b3lyp/svp scf=(tight,noincore,xqc) Test 
#IOP(5/87=12) Density=Current Pop=(MK,readradii) iop(6/33=2) iop(6/42=6)

holoCaM.loop3.water2.frame448 

   0  1 
C         29.57842       67.15500       44.55398
C         30.29079       65.86491       44.83219
O         30.43741       65.04703       43.93590
H         28.68469       67.23312       45.20955
H         30.25795       68.00665       44.77004
H         29.25321       67.21240       43.49448
N         30.74720       65.61890       46.08765
C         31.44077       64.40734       46.49572
C         30.52869       63.69022       47.47088
O         30.79377       63.62704       48.66352
C         32.80656       64.80965       47.07315
C         33.59201       63.62785       47.54323
O         33.90362       62.73417       46.77125
O         33.95949       63.56259       48.83315
H         30.57111       66.32985       46.81599
H         31.62525       63.72385       45.63644
H         32.66116       65.51155       47.92293
H         33.39513       65.33322       46.29014
N         29.37295       63.16745       46.98319
C         28.30319       62.61035       47.80128
C         28.78457       61.44275       48.63303
O         28.62020       61.49808       49.84437
C         27.09004       62.22384       46.92467
C         26.52597       63.46381       46.19772
C         25.28398       63.14570       45.36208
C         24.82666       64.35455       44.52091
N         24.46926       65.51583       45.33928
H         29.24421       63.21014       45.96229
H         27.94560       63.40013       48.50116
H         26.29435       61.80720       47.58127
H         27.38053       61.44568       46.18490
H         27.28459       63.88856       45.51118
H         26.27130       64.23101       46.95884
H         24.46107       62.80737       46.02815
H         25.52596       62.32177       44.65566
H         23.94212       64.04685       43.92172
H         25.63472       64.64126       43.81052
H         24.10030       66.26856       44.71447
H         23.73163       65.25770       46.03352
H         25.30884       65.89745       45.83053
N         29.41623       60.36984       48.07181
C         29.92159       59.25938       48.87960
C         30.82518       59.78074       49.99101
O         30.48205       59.58317       51.14884
C         30.59020       58.15496       48.02447
C         31.81057       58.58525       47.25849
O         32.99875       58.00343       47.51052
O         31.73098       59.44069       46.39187
H         29.54737       60.36056       47.05015
H         29.04497       58.77212       49.36494
H         29.84786       57.75647       47.29953
H         30.87599       57.32178       48.70378
N         31.94470       60.51373       49.72369
C         32.71754       61.17977       50.76046
C         34.11890       60.63755       50.86298
O         34.48328       60.20255       51.94683
H         32.22667       60.67285       48.74684
H         32.23129       61.08161       51.75564
H         32.74515       62.26356       50.53750
N         34.96500       60.62432       49.78987
C         36.33117       60.10051       49.87504
C         37.40622       61.11974       49.48334
O         38.57528       60.80960       49.66384
C         36.43112       58.76285       49.10187
C         36.36305       58.81313       47.55996
N         37.64852       58.49327       46.95548
O         35.91048       60.04579       47.09099
H         34.60473       60.95871       48.88641
H         36.54555       59.83836       50.93386
H         35.59252       58.12080       49.44827
H         37.35969       58.23198       49.40688
H         37.90327       57.51312       47.21586
H         37.53817       58.51239       45.91656
N         37.09978       62.34853       48.96143
C         38.08389       63.38292       48.65959
C         38.21312       63.68930       47.17487
O         39.01640       64.54747       46.83764
H         36.12399       62.58785       48.77362
H         39.09411       63.08229       49.01260
H         37.80095       64.30581       49.20958
N         37.54334       62.96919       46.22895
C         37.86949       63.00209       44.80339
C         36.61222       62.88339       43.95112
O         35.82043       61.99126       44.22289
C         38.73467       61.75694       44.52239
C         40.02557       61.75439       45.31202
C         40.19394       60.85461       46.37621
C         41.07150       62.63686       44.99566
C         41.38018       60.82651       47.10861
C         42.26890       62.59995       45.72252
C         42.42595       61.69128       46.78114
O         43.57329       61.63646       47.48695
H         36.92269       62.21361       46.54175
H         38.45693       63.90412       44.52112
H         38.97299       61.66690       43.44039
H         38.13386       60.86419       44.80484
H         39.40342       60.18003       46.64874
H         40.96676       63.33917       44.17854
H         41.48589       60.12626       47.92816
H         43.07466       63.27360       45.46085
H         44.33139       62.20216       47.28443
N         36.39821       63.67690       42.85471
C         35.26320       63.46770       41.94835
C         35.74739       63.03264       40.56221
O         36.42167       63.78794       39.87775
C         34.29571       64.69120       41.90954
C         34.94703       66.00279       41.39491
C         33.68047       64.88597       43.30711
C         33.94336       67.14649       41.21575
H         37.08613       64.40959       42.62461
H         34.64012       62.62984       42.32370
H         33.46798       64.42670       41.21448
H         35.38452       65.83820       40.39314
H         35.75519       66.32991       42.08283
H         32.89506       65.66424       43.29901
H         33.19478       63.94860       43.64732
H         34.46004       65.16961       44.04429
H         33.49333       67.45783       42.17888
H         34.46388       68.03070       40.79188
H         33.13753       66.84254       40.51300
N         35.44366       61.78358       40.09942
C         35.81299       61.27925       38.77418
C         34.99829       61.95720       37.67442
O         34.19753       62.82518       37.97513
C         35.57731       59.75411       38.72962
O         34.21661       59.45758       38.91527
H         34.93791       61.14673       40.73157
H         36.89991       61.44432       38.60537
H         36.16680       59.26121       39.53202
H         35.95101       59.33925       37.76517
H         33.95672       58.80443       38.21484
N         35.12213       61.57047       36.37086
C         34.28426       62.08783       35.28837
C         32.81451       61.78932       35.54036
O         32.00429       62.70320       35.47881
C         34.69435       61.45550       33.95168
H         35.82263       60.85101       36.13873
H         34.43121       63.18694       35.19159
H         34.06671       61.86129       33.12848
H         35.75586       61.69271       33.72871
H         34.57366       60.35109       33.97826
N         32.40865       60.52327       35.84751
C         31.01756       60.14419       36.09083
C         30.37638       61.01578       37.15156
O         29.31322       61.56627       36.90046
C         30.94012       58.67354       36.52224
H         33.13453       59.79443       35.93022
H         30.43765       60.24871       35.14647
H         31.36947       58.02048       35.73316
H         31.50337       58.50814       37.46582
H         29.88185       58.37540       36.68436
N         30.99025       61.21238       38.35033
C         30.43955       62.05794       39.40684
C         30.16885       63.45970       38.88258
O         29.03902       63.91708       38.98447
C         31.39062       62.10298       40.62497
C         31.52256       60.72347       41.29627
C         32.39849       60.78489       42.51251
O         32.05959       61.56856       43.55354
O         33.40856       60.10372       42.57493
H         31.90552       60.76264       38.49480
H         29.47138       61.63104       39.75393
H         30.97444       62.81368       41.37312
H         32.39276       62.46910       40.31114
H         31.94643       59.98505       40.58389
H         30.51910       60.36543       41.61021
N         31.14812       64.17699       38.26861
C         30.95049       65.49324       37.69720
H         29.92059       65.87500       37.85586
H         31.66816       66.20461       38.15537
H         31.14140       65.44808       36.60348
H         32.07657       63.75954       38.16837
Ca        34.46557       59.60569       45.39920
O         33.25234       57.33959       43.92931
H         33.44428       56.63190       44.59449
H         33.90726       57.18407       43.20308
O         36.48903       59.14507       43.18894
H         36.19862       59.90990       42.63198
H         37.47711       59.16381       43.13747

Ca 1.0



