%chk=holoCaM.loop3.water3.frame365.chk
%nprocshared=20
%mem=10GB
%nosave
#b3lyp/svp scf=(tight,noincore,xqc) Test 
#IOP(5/87=12) Density=Current Pop=(MK,readradii) iop(6/33=2) iop(6/42=6)

holoCaM.loop3.water3.frame365 

   0  1 
C         -2.79587       28.94409       61.07415
C         -2.92412       29.37164       59.64231
O         -2.61957       30.50952       59.31725
H         -3.79106       28.62709       61.45317
H         -2.09513       28.08504       61.14432
H         -2.41762       29.77302       61.70748
N         -3.37954       28.48117       58.72372
C         -3.55709       28.78313       57.30773
C         -4.59142       29.89413       57.13106
O         -5.63811       29.82832       57.75909
C         -3.95835       27.48293       56.58011
C         -3.94474       27.58848       55.08856
O         -4.20764       26.60797       54.41711
O         -3.60259       28.73116       54.47844
H         -3.60382       27.52971       59.05769
H         -2.58135       29.10308       56.89055
H         -4.95998       27.14850       56.92312
H         -3.21287       26.69656       56.83488
N         -4.35503       30.94817       56.29218
C         -5.21774       32.12596       56.19044
C         -6.04479       32.14653       54.90877
O         -6.92930       32.98831       54.80815
C         -4.33235       33.39520       56.26537
C         -3.43117       33.45472       57.51843
C         -4.19818       33.60875       58.84011
C         -4.85414       34.99341       58.96737
N         -5.59177       35.10973       60.22286
H         -3.51174       30.93560       55.70792
H         -5.95666       32.11434       57.01879
H         -4.95036       34.31172       56.18124
H         -3.65628       33.38318       55.38144
H         -2.71718       34.30145       57.42125
H         -2.81890       32.52930       57.56027
H         -3.47330       33.49799       59.67579
H         -4.95189       32.80100       58.94262
H         -5.55665       35.17892       58.12920
H         -4.05804       35.77169       58.93409
H         -4.95989       34.92803       61.03588
H         -5.97816       36.07822       60.30118
H         -6.38474       34.42770       60.22912
N         -5.83075       31.25989       53.89766
C         -6.65216       31.15783       52.69262
C         -7.23687       29.76040       52.50272
O         -8.02248       29.58562       51.58318
C         -5.86411       31.58988       51.42702
C         -4.53955       30.89185       51.15083
O         -3.93107       31.17329       50.13291
O         -3.99384       30.03224       52.04077
H         -5.04100       30.62107       53.99446
H         -7.52750       31.84207       52.77543
H         -5.65106       32.67749       51.50968
H         -6.53362       31.45719       50.54759
N         -6.90904       28.71605       53.31771
C         -7.44443       27.37953       53.15200
C         -7.11354       26.78310       51.80440
O         -8.03493       26.35089       51.12486
H         -6.26053       28.84814       54.10082
H         -8.54649       27.39572       53.30252
H         -7.00803       26.72233       53.93584
N         -5.82313       26.68982       51.36489
C         -5.45599       25.98013       50.13631
C         -4.58013       24.76481       50.44009
O         -4.26288       24.03162       49.51554
C         -4.80069       26.93234       49.10401
C         -3.37234       27.28407       49.41596
N         -2.37703       27.06609       48.52302
O         -3.11036       27.77627       50.48971
H         -5.07982       27.10654       51.94603
H         -6.37791       25.59756       49.65038
H         -5.40597       27.86359       49.04544
H         -4.82258       26.45328       48.10302
H         -2.57215       26.66294       47.59596
H         -1.40258       27.31311       48.75579
N         -4.14304       24.49829       51.71034
C         -3.31497       23.36513       52.07362
C         -1.93304       23.78759       52.52254
O         -1.17205       22.90928       52.90427
H         -4.38875       25.12035       52.48562
H         -3.18377       22.66642       51.22059
H         -3.82217       22.81339       52.89385
N         -1.50017       25.08317       52.43201
C         -0.12030       25.47143       52.68036
C         -0.02320       26.54049       53.78904
O         -1.02825       27.52504       53.87990
C          0.57185       25.85974       51.35176
C          0.60898       24.66458       50.41330
C         -0.54419       24.25974       49.71691
C          1.79097       23.91648       50.25779
C         -0.52286       23.12680       48.89896
C          1.80818       22.77681       49.44469
C          0.64844       22.37624       48.76581
O          0.64531       21.27270       47.99027
H         -2.13095       25.81690       52.07981
H          0.47139       24.61282       53.06836
H          1.61823       26.14727       51.59447
H          0.09191       26.72805       50.85651
H         -1.46539       24.81635       49.81084
H          2.69369       24.19618       50.78624
H         -1.42256       22.82617       48.37657
H          2.72002       22.19986       49.35105
H          1.42793       20.71284       47.88548
N          1.34696       27.01876       54.02410
C          1.52223       28.16067       54.93785
C          2.83186       28.80778       54.53289
O          3.89086       28.26827       54.82556
C          1.49557       27.77380       56.46286
C          0.13312       27.14432       56.86204
C          1.79822       29.01116       57.33601
C          0.00258       26.75641       58.33757
H          1.96737       26.22176       54.29984
H          0.71997       28.90115       54.74434
H          2.29662       27.02555       56.65642
H         -0.01774       26.20923       56.28887
H         -0.68372       27.85110       56.61551
H          1.00822       29.77946       57.21317
H          1.87389       28.73742       58.40774
H          2.77991       29.45645       57.07526
H          0.80036       26.03931       58.62332
H          0.04100       27.64529       58.99914
H         -0.98507       26.27454       58.50139
N          2.82074       29.93186       53.76358
C          4.03461       30.57770       53.27761
C          4.77127       31.26634       54.40799
O          4.25425       31.31328       55.51225
C          3.67865       31.60591       52.18537
O          2.85820       32.62496       52.69634
H          1.90987       30.29988       53.46161
H          4.68677       29.80519       52.81436
H          3.17984       31.08756       51.33330
H          4.59594       32.07105       51.76944
H          1.92411       32.42189       52.42935
N          5.98858       31.84488       54.20047
C          6.65632       32.62942       55.23463
C          5.90381       33.92650       55.50349
O          6.02880       34.46642       56.59372
C          8.09505       32.95475       54.83071
H          6.44072       31.73449       53.27983
H          6.70357       32.01873       56.16498
H          8.60229       33.52234       55.64032
H          8.65797       32.01224       54.66020
H          8.11219       33.55862       53.89844
N          5.11935       34.49476       54.53910
C          4.33327       35.70830       54.74182
C          3.32175       35.48236       55.84550
O          3.28856       36.23876       56.80535
C          3.60816       36.08653       53.44070
H          5.06849       34.03938       53.61572
H          5.00648       36.55349       55.00666
H          2.92043       35.27894       53.11145
H          3.01836       37.01647       53.58265
H          4.35003       36.26148       52.63219
N          2.49946       34.40161       55.77998
C          1.54659       34.01657       56.81487
C          2.25571       33.84461       58.14623
O          1.83934       34.45769       59.11909
C          0.86226       32.69484       56.40651
C         -0.06566       32.88212       55.19455
C         -0.55347       31.55581       54.69935
O         -0.38251       31.23582       53.53504
O         -1.15597       30.69974       55.53936
H          2.60456       33.78449       54.96221
H          0.76203       34.79809       56.93152
H          0.24638       32.30632       57.24826
H          1.64852       31.94233       56.17495
H          0.45329       33.39625       54.35818
H         -0.93047       33.50980       55.49893
N          3.35433       33.04795       58.25083
C          4.09281       32.84426       59.47890
H          5.12978       33.21997       59.34845
H          3.63252       33.36804       60.34203
H          4.13193       31.75815       59.70410
H          3.70785       32.57792       57.41244
Ca        -1.92610       29.01672       52.35211
O          0.79575       29.31937       51.01433
H          1.64290       28.84335       51.20174
H          0.52932       29.00621       50.11343
O         -0.88472       31.21637       49.44711
H         -1.46757       31.32882       50.23771
H         -0.68210       32.14036       49.15718
O         -2.48242       32.89152       52.23342
H         -1.59441       33.27330       52.01977
H         -2.84910       33.48229       52.93712

Ca 1.0



