%chk=holoCaM.loop1.water2.frame473.chk
%nprocshared=20
%mem=10GB
%nosave
#b3lyp/svp scf=(tight,noincore,xqc) Test 
#IOP(5/87=12) Density=Current Pop=(MK,readradii) iop(6/33=2) iop(6/42=6)

holoCaM.loop1.water2.frame473 

   0  1 
C          2.45619       74.40765       57.39272
C          1.27422       75.13556       57.95545
O          0.15596       74.87213       57.53443
H          2.97904       73.86422       58.20818
H          2.13364       73.67008       56.62646
H          3.15391       75.13234       56.92565
N          1.44528       76.05222       58.94902
C          0.31842       76.73004       59.57059
C         -0.34956       77.69184       58.58557
O          0.27230       78.64745       58.14369
C          0.75234       77.43857       60.86596
C         -0.45050       78.01788       61.53939
O         -0.51234       79.21507       61.74502
O         -1.49527       77.22414       61.84535
H          2.39815       76.21666       59.31015
H         -0.40000       75.93853       59.88275
H          1.49759       78.23451       60.64330
H          1.21846       76.69900       61.55244
N         -1.62307       77.44647       58.17633
C         -2.34588       78.21207       57.16317
C         -2.80494       79.58655       57.64851
O         -2.60254       80.56205       56.94004
C         -3.58622       77.39092       56.72925
C         -4.34468       77.99963       55.53835
C         -5.54267       77.11663       55.16309
C         -6.31073       77.68600       53.96360
N         -7.47037       76.85198       53.64640
H         -2.07424       76.59856       58.54688
H         -1.70640       78.30880       56.25652
H         -4.27934       77.27480       57.59111
H         -3.24156       76.37708       56.42393
H         -3.65616       78.08022       54.66823
H         -4.71273       79.01502       55.79992
H         -6.22858       77.04919       56.03584
H         -5.18602       76.09361       54.90991
H         -5.63706       77.73235       53.07880
H         -6.65679       78.71726       54.19698
H         -7.16398       75.87966       53.41216
H         -8.12679       76.82699       54.46063
H         -7.97086       77.25723       52.82276
N         -3.52628       79.70509       58.80029
C         -4.30867       80.89183       59.17929
C         -3.79271       81.64484       60.40865
O         -4.42443       82.62334       60.78513
C         -5.78881       80.46570       59.36503
C         -5.90861       79.31570       60.32724
O         -6.32099       78.23609       59.93384
O         -5.37729       79.41299       61.55706
H         -3.59617       78.86722       59.39284
H         -4.28704       81.64622       58.36263
H         -6.18632       80.13819       58.37870
H         -6.40523       81.32313       59.70922
N         -2.62917       81.32099       61.03275
C         -1.98778       82.20582       62.00183
C         -2.27942       81.92532       63.46360
O         -1.66173       82.58728       64.28662
H         -2.06763       80.56722       60.62233
H         -2.20793       83.27071       61.76830
H         -0.88926       82.08780       61.87877
N         -3.15334       80.96699       63.89099
C         -3.30582       80.64356       65.31610
C         -2.03979       80.01529       65.91721
O         -2.01361       79.79858       67.12195
C         -4.53078       79.73402       65.57249
C         -4.53385       78.47326       64.75863
O         -5.49688       78.20575       64.05899
O         -3.48218       77.63874       64.78175
H         -3.71025       80.45774       63.19415
H         -3.50393       81.58736       65.87168
H         -5.45918       80.30113       65.34238
H         -4.56640       79.46704       66.65140
N         -0.95498       79.69946       65.15413
C          0.27206       79.12437       65.67134
C          0.06095       77.74085       66.23565
O          0.53522       77.47100       67.32421
H         -0.97407       79.86982       64.14249
H          0.73891       79.80105       66.42103
H          0.98471       79.02004       64.82378
N         -0.57855       76.79962       65.48238
C         -0.72041       75.37868       65.84195
C         -1.13712       74.56506       64.60624
O         -1.51095       75.13970       63.59960
C         -1.72809       75.09568       67.00330
C         -1.38767       75.69882       68.37575
O         -3.03676       75.44330       66.63144
H         -0.88423       77.11751       64.55435
H          0.29153       75.01324       66.12127
H         -1.71991       73.99793       67.17417
H         -3.15704       76.41081       66.81080
H         -1.47945       76.80385       68.36904
H         -2.11475       75.33086       69.13024
H         -0.36829       75.39569       68.69351
N         -1.03913       73.20045       64.60251
C         -1.31994       72.39823       63.41088
C         -2.43692       71.39493       63.68838
O         -2.26206       70.47924       64.47720
C          0.01740       71.78383       62.88163
C          0.85866       72.93589       62.24701
C         -0.21415       70.65880       61.86140
C          2.21573       72.52449       61.67670
H         -0.69230       72.71993       65.44391
H         -1.69685       73.03721       62.59283
H          0.56672       71.32541       63.73338
H          1.04419       73.72032       63.01068
H          0.27957       73.40001       61.41570
H          0.74590       70.20077       61.55093
H         -0.80796       69.83591       62.30761
H         -0.72745       71.04461       60.96818
H          2.72338       73.42549       61.26868
H          2.85138       72.08057       62.46914
H          2.10300       71.81032       60.83564
N         -3.63398       71.54151       63.03652
C         -4.77234       70.62223       63.14228
C         -4.47414       69.30167       62.44519
O         -3.39753       69.15003       61.89679
C         -6.04367       71.24931       62.48909
C         -6.51080       72.51881       63.20771
O         -5.85863       71.48540       61.11259
H         -3.74020       72.36873       62.43542
H         -4.99726       70.43714       64.21544
H         -6.89018       70.53859       62.58593
H         -5.40891       72.36030       60.98726
H         -6.71941       72.30173       64.27604
H         -5.73993       73.30813       63.13999
H         -7.44130       72.89377       62.73157
N         -5.40044       68.29908       62.40324
C         -5.19567       67.06844       61.63444
C         -5.19977       67.31682       60.11961
O         -4.78646       66.42689       59.38931
C         -6.26422       66.00448       61.99182
C         -6.11905       65.55090       63.45337
O         -7.54795       66.53201       61.76369
H         -6.27621       68.41864       62.93290
H         -4.19807       66.65465       61.90571
H         -6.11058       65.11103       61.34400
H         -8.20179       65.80843       61.94917
H         -5.11169       65.11009       63.61332
H         -6.25648       66.39690       64.15790
H         -6.87504       64.77180       63.68746
N         -5.68576       68.46959       59.57065
C         -5.67836       68.74448       58.13264
C         -4.32799       69.29622       57.73024
O         -3.67611       68.74728       56.85367
C         -6.76066       69.78232       57.76131
C         -8.17840       69.25545       58.01238
C         -9.21957       70.29253       57.56535
C        -10.67068       69.82578       57.76414
N        -10.99380       68.64847       56.95467
H         -6.10619       69.17259       60.19140
H         -5.90413       67.81925       57.55541
H         -6.66659       70.00987       56.67534
H         -6.61180       70.72854       58.32639
H         -8.31862       69.03153       59.09220
H         -8.30307       68.31925       57.43005
H         -9.06675       70.53800       56.49139
H         -9.07130       71.22286       58.15694
H        -11.33948       70.66134       57.45963
H        -10.85986       69.60910       58.83854
H        -10.77393       68.82883       55.94798
H        -10.46812       67.81115       57.29125
H        -12.01516       68.44502       57.04417
N         -3.85522       70.40128       58.36627
C         -2.56588       71.03642       58.11574
C         -1.44771       70.01617       58.26423
O         -0.56713       69.97087       57.41668
C         -2.40191       72.23631       59.08562
C         -3.40709       73.36318       58.75306
C         -3.40385       74.49235       59.74640
O         -4.17452       75.42603       59.59349
O         -2.58314       74.48706       60.81126
H         -4.44230       70.78570       59.11838
H         -2.52026       71.43704       57.07842
H         -1.37344       72.65480       59.01658
H         -2.57819       71.88312       60.12452
H         -4.44134       72.96566       58.72952
H         -3.17015       73.77062       57.74640
N         -1.47688       69.09761       59.26459
C         -0.49807       68.04259       59.39825
H          0.50824       68.47370       59.57388
H         -0.76627       67.39033       60.25806
H         -0.48720       67.41852       58.47906
H         -2.25260       69.11810       59.92836
Ca        -3.58141       78.07177       61.86040
O         -5.27020       75.29605       64.67283
H         -4.41387       74.88026       64.39866
H         -5.63976       74.68235       65.35580
O         -6.41554       75.53496       61.72922
H         -6.41194       76.49440       61.97081
H         -7.37138       75.27817       61.75061

Ca 1.0



