%chk=holoCaM.loop2.water1.frame8.chk
%nprocshared=20
%mem=10GB
%nosave
#b3lyp/svp scf=(tight,noincore,xqc) Test 
#IOP(5/87=12) Density=Current Pop=(MK,readradii) iop(6/33=2) iop(6/42=6)

holoCaM.loop2.water1.frame8 

   -2  1 
C         96.18840       35.36180       39.32246
C         97.33133       34.52024       38.84744
O         97.15420       33.32263       38.66875
H         95.27654       34.74068       39.45725
H         96.44940       35.83675       40.28987
H         95.97210       36.14833       38.56906
N         98.54277       35.08961       38.58981
C         99.65014       34.31358       38.05679
C        100.12005       33.27633       39.07551
O        100.36711       33.63829       40.21744
C        100.83876       35.20624       37.61541
C        101.75891       34.43043       36.69528
O        102.81332       34.90532       36.31528
O        101.35966       33.22136       36.25462
H         98.65403       36.10692       38.72179
H         99.26240       33.83048       37.13842
H        101.37960       35.57640       38.51429
H        100.47765       36.08341       37.03645
N        100.29872       31.97452       38.71245
C        100.68944       30.90654       39.62414
C        102.10842       30.39903       39.37665
O        102.52002       29.49489       40.09071
C         99.68044       29.76091       39.48365
H        100.15762       31.72108       37.73226
H        100.66274       31.26658       40.67541
H         99.91394       28.93981       40.19374
H         98.65434       30.12891       39.69670
H         99.70238       29.35246       38.44916
N        102.93332       30.95083       38.43711
C        104.32520       30.54214       38.24404
C        105.28402       31.68502       38.57177
O        106.48546       31.47977       38.45698
C        104.55683       30.14130       36.77349
C        103.66069       29.03984       36.28176
O        102.73595       29.30767       35.33750
O        103.77576       27.90603       36.71760
H        102.58604       31.72054       37.85189
H        104.58267       29.68242       38.89980
H        105.61150       29.83075       36.60894
H        104.39093       31.04049       36.15499
N        104.84449       32.92547       38.94815
C        105.73905       34.05068       39.17049
C        106.41013       34.56693       37.90378
O        107.17377       35.51560       38.01533
H        103.84140       33.10322       39.09433
H        106.50509       33.76713       39.92461
H        105.14962       34.89694       39.58629
N        106.18556       34.01808       36.67042
C        106.85059       34.48459       35.45384
C        106.28370       35.80339       34.91999
O        106.76241       36.26692       33.89404
C        106.84217       33.37616       34.37506
C        105.50620       33.11546       33.72741
N        105.38122       33.15278       32.38211
O        104.53684       32.83621       34.40996
H        105.57018       33.20239       36.59333
H        107.92954       34.61968       35.69341
H        107.20217       32.43358       34.84354
H        107.57509       33.64453       33.58361
H        106.18415       33.37460       31.77602
H        104.48004       32.92494       31.94291
N        105.29285       36.48197       35.57214
C        104.79212       37.77774       35.14837
C        103.75552       37.74850       34.03878
O        103.31545       38.83280       33.68292
H        104.94871       36.13823       36.47574
H        105.64818       38.43417       34.87450
H        104.28959       38.25445       36.01785
N        103.29770       36.59962       33.44711
C        102.29502       36.61671       32.37084
C        101.06265       35.77275       32.72097
O        101.01189       35.19308       33.79592
C        102.93582       36.16131       31.03937
C        104.19573       36.96964       30.70455
O        103.25415       34.80133       31.10280
H        103.68662       35.69001       33.73567
H        101.93175       37.65405       32.20180
H        102.19400       36.33309       30.22612
H        103.25979       34.46136       30.16969
H        104.98578       36.80308       31.46815
H        104.59706       36.65008       29.72014
H        103.96064       38.05400       30.65786
N        100.01805       35.68035       31.84146
C         98.77077       34.95221       32.08661
C         98.59130       33.84164       31.05179
O         98.62515       34.12008       29.86110
C         97.56947       35.95384       32.02958
C         97.66303       36.95371       33.21321
C         96.20968       35.21865       32.04764
C         96.59995       38.05589       33.18464
H        100.08875       36.18206       30.94416
H         98.76714       34.48788       33.09633
H         97.62727       36.51415       31.06941
H         98.65211       37.45772       33.19166
H         97.57834       36.40072       34.17546
H         96.11791       34.52828       31.18449
H         96.08635       34.64438       32.98678
H         95.36337       35.92446       31.93934
H         95.57470       37.64560       33.28083
H         96.75803       38.74094       34.04389
H         96.67830       38.64030       32.24391
N         98.28210       32.57242       31.46093
C         97.89576       31.47955       30.56311
C         96.40732       31.16588       30.74991
O         95.75416       31.86903       31.50129
C         98.82354       30.25236       30.72157
C         98.86012       29.65286       32.09658
O         99.40389       30.33954       33.11389
O         98.47544       28.50962       32.28135
H         98.21471       32.39525       32.47203
H         97.99820       31.80000       29.50357
H         99.86027       30.54091       30.44788
H         98.50838       29.47312       29.99678
N         95.77983       30.18983       30.02875
C         94.32059       30.06186       29.95008
C         93.59371       29.91254       31.29851
O         92.77200       30.78159       31.55725
C         93.91849       28.97346       28.92421
C         92.42261       28.88043       28.73569
C         91.70237       29.96645       28.20818
C         91.73425       27.70342       29.07967
C         90.31926       29.87565       28.02869
C         90.34985       27.61861       28.90140
C         89.64322       28.70329       28.37549
H         96.34985       29.59082       29.41418
H         93.95839       31.02124       29.51562
H         94.32297       27.99287       29.21569
H         94.38084       29.20486       27.94032
H         92.21073       30.88063       27.92982
H         92.26577       26.85335       29.48956
H         89.77198       30.71459       27.61891
H         89.82452       26.71123       29.17017
H         88.57221       28.63527       28.23554
N         93.76983       28.89069       32.20093
C         93.03021       28.79207       33.46276
C         93.06787       30.06675       34.28206
O         92.04286       30.50196       34.78684
C         93.76785       27.68630       34.22970
C         94.21527       26.78573       33.11065
C         94.71014       27.79432       32.07553
H         91.98119       28.48557       33.24837
H         94.70022       28.08689       34.69011
H         93.16388       27.20375       35.02848
H         94.95447       26.00657       33.39206
H         93.30364       26.28511       32.70795
H         95.72935       28.17543       32.30136
H         94.69370       27.27274       31.10955
N         94.24997       30.72007       34.42364
C         94.45184       31.93266       35.20750
C         93.52065       33.03479       34.73345
O         92.79420       33.58642       35.54848
C         95.93315       32.36833       35.11326
C         96.87801       31.28765       35.68855
C         98.33038       31.60187       35.51397
O         98.70265       32.64508       35.00164
O         99.23724       30.67332       35.86877
H         95.05075       30.32754       33.90978
H         94.23401       31.72525       36.27942
H         96.08600       33.31487       35.67716
H         96.18926       32.54696       34.04776
H         96.73152       30.31978       35.17334
H         96.66508       31.13449       36.76764
N         93.45139       33.37450       33.41878
C         92.54189       34.38142       32.92030
H         91.49589       34.10953       33.17895
H         92.79285       35.36978       33.35751
H         92.62303       34.44654       31.81373
H         94.03658       32.87924       32.73983
Ca       102.19910       31.48754       35.10868
O        101.76736       32.13779       31.80023
H        101.36709       32.73028       31.11555
H        102.21842       31.42746       31.27817

Ca 1.0



