%chk=holoCaM-CaMKII.loop3.water2.frame445.chk
%nprocshared=20
%mem=10GB
%nosave
#b3lyp/svp scf=(tight,noincore,xqc) Test 
#IOP(5/87=12) Density=Current Pop=(MK,readradii) iop(6/33=2) iop(6/42=6)

holoCaM-CaMKII.loop3.water2.frame445 

   0  1 
C         65.27819       77.59098       29.61387
C         65.09269       78.41284       30.84948
O         66.07114       78.91530       31.38591
H         66.35239       77.54032       29.33529
H         64.89346       76.56543       29.78411
H         64.71828       78.06252       28.77799
N         63.84019       78.63187       31.33771
C         63.60262       79.52189       32.46105
C         64.18162       78.93441       33.74082
O         63.71045       77.89141       34.17386
C         62.09000       79.82148       32.59838
C         61.83621       81.04607       33.41972
O         62.88145       81.79257       33.79899
O         60.70025       81.43799       33.59382
H         63.03696       78.22079       30.83682
H         64.11403       80.46792       32.20527
H         61.55443       78.93980       33.01122
H         61.66946       80.04927       31.59451
N         65.25258       79.51235       34.36157
C         65.91871       78.87994       35.49984
C         65.08365       78.90551       36.77204
O         65.31291       78.04780       37.61378
C         67.31662       79.47600       35.77091
C         68.27259       79.27674       34.57503
C         69.67785       79.84692       34.82391
C         70.48750       79.09402       35.88815
N         71.78531       79.73973       36.08990
H         65.65859       80.36511       33.94963
H         66.08764       77.81126       35.23453
H         67.74169       78.95678       36.65446
H         67.22537       80.55865       36.00783
H         67.85468       79.80580       33.69318
H         68.35551       78.19777       34.31842
H         69.59092       80.90902       35.12038
H         70.24658       79.78669       33.87121
H         70.64140       78.04358       35.55423
H         69.94971       79.08043       36.85796
H         71.64378       80.70847       36.45991
H         72.33898       79.19205       36.78697
H         72.31712       79.78413       35.19028
N         64.13625       79.86179       37.00921
C         63.30452       79.87107       38.21792
C         61.81525       79.78792       37.90356
O         61.03038       79.73866       38.84122
C         63.61112       81.10985       39.09357
C         63.25942       82.44089       38.48407
O         63.46550       83.56732       39.19230
O         62.78064       82.51770       37.36681
H         64.01036       80.61155       36.31383
H         63.53910       78.98449       38.84582
H         64.69234       81.11139       39.34784
H         63.03973       81.02048       40.04365
N         61.34188       79.77298       36.62435
C         59.92757       79.71822       36.30877
C         59.19210       80.93266       36.82750
O         58.25363       80.76192       37.59253
H         61.99349       79.79177       35.83038
H         59.49098       78.78602       36.72936
H         59.79835       79.67540       35.20704
N         59.54969       82.19092       36.43157
C         58.83846       83.39793       36.85090
C         58.15457       84.10584       35.68578
O         57.44994       85.07343       35.93786
C         59.79345       84.38050       37.56298
C         60.74686       85.06921       36.60650
N         60.70218       86.40983       36.44108
O         61.55028       84.41851       35.96025
H         60.35229       82.28914       35.79917
H         58.04281       83.11764       37.57453
H         60.35783       83.85315       38.36169
H         59.17245       85.15901       38.05706
H         60.02804       86.99275       36.95768
H         61.34440       86.86355       35.77947
N         58.33321       83.70930       34.39153
C         57.70449       84.36132       33.25956
C         58.69036       84.96496       32.27765
O         58.20858       85.46220       31.26914
H         58.92437       82.90233       34.17704
H         57.01936       85.17212       33.58400
H         57.09434       83.59996       32.72644
N         60.05244       84.96253       32.45228
C         60.94859       85.53821       31.43973
C         62.40894       85.15421       31.60521
O         62.78963       84.60134       32.62375
C         60.78550       87.08024       31.34569
C         61.11921       87.85486       32.61055
C         62.43973       87.94985       33.09251
C         60.09972       88.54069       33.29707
C         62.72903       88.71797       34.22707
C         60.39085       89.30253       34.43319
C         61.70866       89.39806       34.89958
O         62.00488       90.13723       35.98823
H         60.45238       84.50287       33.28338
H         60.65971       85.08126       30.46678
H         59.73755       87.29635       31.06235
H         61.40622       87.48218       30.51765
H         63.25526       87.45342       32.58636
H         59.07499       88.49167       32.95151
H         63.74967       88.79085       34.58120
H         59.59183       89.82326       34.94610
H         61.32866       90.62723       36.47813
N         63.27445       85.37699       30.57103
C         64.68470       84.99332       30.57631
C         65.57686       86.15713       30.16933
O         65.15804       87.00125       29.38856
C         64.93008       83.76249       29.64438
C         64.50122       84.02822       28.17350
C         64.21849       82.53522       30.23286
C         64.76378       82.85601       27.22474
H         62.89280       85.78803       29.70611
H         64.99297       84.68822       31.60190
H         66.02017       83.53596       29.65507
H         65.07068       84.89838       27.78490
H         63.41789       84.26451       28.11985
H         64.47106       81.60943       29.67693
H         64.56752       82.39355       31.27440
H         63.11602       82.66710       30.23405
H         64.14795       81.97365       27.49473
H         64.47886       83.15009       26.19206
H         65.83832       82.57812       27.23376
N         66.86557       86.20350       30.61052
C         67.85293       87.19122       30.18289
C         68.98793       86.48650       29.44678
O         68.90670       85.28548       29.25078
C         68.35497       87.97639       31.40651
O         68.99870       87.12231       32.31228
H         67.18106       85.47623       31.26766
H         67.40273       87.92453       29.47889
H         67.48658       88.46386       31.90298
H         69.05674       88.77314       31.07331
H         69.43403       87.71095       32.98284
N         70.07801       87.16927       28.99675
C         71.17689       86.53922       28.26208
C         71.81983       85.40698       29.04574
O         71.93504       84.31258       28.51165
C         72.24327       87.58065       27.90949
H         70.12652       88.18346       29.17496
H         70.78593       86.13073       27.30283
H         73.05981       87.10590       27.32355
H         71.79404       88.38639       27.29121
H         72.67555       88.03152       28.82815
N         72.24083       85.59615       30.32768
C         72.86664       84.55307       31.13964
C         72.01882       83.29973       31.18680
O         72.53387       82.21669       30.94595
C         73.07994       85.06276       32.57176
H         72.07928       86.52178       30.75456
H         73.86287       84.29586       30.71644
H         72.10925       85.33205       33.04340
H         73.56686       84.27820       33.19069
H         73.73282       85.96039       32.56636
N         70.69591       83.38861       31.47835
C         69.80859       82.23699       31.58977
C         69.81657       81.42007       30.30534
O         70.13661       80.24082       30.36541
C         68.38942       82.70454       31.98259
C         68.41088       83.39059       33.37210
C         67.06594       83.86586       33.81098
O         66.88481       85.03098       34.12690
O         66.04866       83.00042       33.84498
H         70.31022       84.33368       31.61809
H         70.17412       81.58147       32.40796
H         67.71340       81.82143       32.02858
H         67.99939       83.39241       31.20671
H         69.10332       84.25463       33.39837
H         68.75824       82.65650       34.11790
N         69.52862       81.99174       29.10407
C         69.59629       81.28859       27.83808
H         70.35869       81.77550       27.19227
H         69.87655       80.22107       27.95725
H         68.61168       81.34336       27.32976
H         69.28169       82.98433       29.07208
Ca        64.04236       83.43854       34.72439
O         64.27272       86.25891       36.08523
H         63.71010       86.33903       36.89594
H         64.85846       87.05659       36.11027
O         66.29662       83.03997       36.92589
H         67.20381       83.36631       37.14985
H         65.69896       83.53476       37.53944

Ca 1.0



