%chk=holoCaM.loop4.water3.frame484.chk
%nprocshared=20
%mem=10GB
%nosave
#b3lyp/svp scf=(tight,noincore,xqc) Test 
#IOP(5/87=12) Density=Current Pop=(MK,readradii) iop(6/33=2) iop(6/42=6)

holoCaM.loop4.water3.frame484 

   -3  1 
C         99.42192       59.25902       60.04938
C         99.56259       57.79227       59.77493
O         99.48905       57.41326       58.61572
H        100.21801       59.80833       59.50222
H         98.43136       59.61120       59.69344
H         99.51869       59.48309       61.13149
N         99.76326       56.90183       60.79104
C         99.95841       55.47348       60.56237
C         99.98372       54.70514       61.87818
O        100.81570       54.99409       62.72737
C        101.26641       55.23275       59.77636
C        101.50461       53.77208       59.56647
O        102.54964       53.25883       59.93125
O        100.54629       53.01723       59.00522
H         99.77524       57.25703       61.75968
H         99.10508       55.09388       59.95743
H        102.13258       55.67887       60.31250
H        101.20236       55.70543       58.77669
N         99.09780       53.68477       62.08621
C         99.03532       52.88673       63.30684
C         99.35367       51.40490       63.08429
O         99.45123       50.70531       64.08356
C         97.65056       53.08091       64.01663
C         96.38446       52.84638       63.13980
C         97.56149       54.50551       64.58828
C         96.24599       51.45694       62.52508
H         98.42851       53.46652       61.34021
H         99.82456       53.22475       64.01459
H         97.60618       52.38879       64.88677
H         96.33638       53.60213       62.32901
H         95.48780       53.00150       63.77901
H         96.61299       54.63625       65.15324
H         98.40088       54.69430       65.28985
H         97.59446       55.26237       63.77529
H         95.27867       51.38966       61.98238
H         97.03607       51.27765       61.77890
H         96.27378       50.67312       63.30929
N         99.50269       50.83896       61.84516
C         99.74845       49.40277       61.65575
C        100.90085       49.08411       60.70099
O        101.20502       47.90908       60.54437
C         98.44422       48.69429       61.22038
C         97.84038       49.15072       59.91789
O         98.35545       50.02849       59.24669
O         96.69748       48.58086       59.49255
H         99.34766       51.42305       61.01394
H        100.02600       48.93929       62.62779
H         97.68569       48.84883       62.01721
H         98.63285       47.60118       61.15017
N        101.59646       50.05158       60.03728
C        102.72614       49.77533       59.15870
C        102.40194       48.99696       57.89145
O        103.34108       48.69766       57.16707
H        101.36443       51.03414       60.19976
H        103.48935       49.21174       59.73862
H        103.18554       50.73767       58.84562
N        101.13673       48.61077       57.55045
C        100.86332       47.76154       56.38996
C        101.24315       48.38321       55.04856
O        101.45886       47.63068       54.10899
C         99.39934       47.25971       56.37749
C         98.33502       48.32748       56.32707
O         98.61604       49.51408       56.34369
O         97.04127       47.95854       56.29380
H        100.35433       48.86481       58.16433
H        101.49847       46.85472       56.50651
H         99.22347       46.66667       57.30052
H         99.26098       46.58498       55.50546
N        101.29379       49.73059       54.86317
C        101.67723       50.35602       53.60289
C        100.50509       50.99197       52.88312
O        100.74154       51.70250       51.91540
H        101.02538       50.34839       55.63891
H        102.14322       49.63325       52.89973
H        102.44319       51.12832       53.83330
N         99.21653       50.75476       53.26201
C         98.04747       51.35206       52.62693
C         97.29706       52.19901       53.64239
O         97.79614       52.36709       54.74619
C         97.17878       50.26488       51.95332
C         96.53925       49.23512       52.90113
C         95.65041       48.25877       52.15711
N         94.98766       47.29476       52.83505
O         95.51672       48.33443       50.94323
H         99.03977       50.11643       54.04526
H         98.35441       52.03783       51.80680
H         97.80908       49.72879       51.20921
H         96.36643       50.76922       51.38895
H         95.91669       49.76438       53.65347
H         97.33108       48.66164       53.42653
H         95.08024       47.21146       53.85739
H         94.37601       46.63207       52.33453
N         96.11179       52.79669       53.33959
C         95.43986       53.73472       54.23254
C         94.12273       53.15255       54.71281
O         93.31570       52.72950       53.89496
C         95.22105       55.08676       53.49940
C         94.61859       56.14039       54.44373
C         96.53975       55.63104       52.92818
H         95.67646       52.61895       52.42173
H         96.07316       53.95028       55.12292
H         94.52123       54.92996       52.64830
H         95.29472       56.32663       55.30647
H         94.45786       57.09792       53.90564
H         93.63609       55.80815       54.82363
H         97.28074       55.79914       53.73868
H         96.97049       54.92346       52.18895
H         96.35729       56.59102       52.39992
N         93.81670       53.17311       56.04124
C         92.53961       52.73397       56.59099
C         91.63467       53.94258       56.78602
O         92.06257       55.06449       56.56115
C         92.82285       51.98811       57.92458
C         91.63035       51.39040       58.62595
N         90.88809       50.42910       58.03240
O         91.35175       51.75344       59.75891
H         94.48210       53.62389       56.68637
H         92.03380       52.05252       55.87313
H         93.33079       52.69430       58.62048
H         93.51299       51.14849       57.72266
H         91.11841       50.09503       57.08628
H         90.08710       50.01063       58.52729
N         90.34042       53.77890       57.15955
C         89.43069       54.88448       57.45112
C         89.90968       55.68634       58.65863
O         89.90458       56.90651       58.58074
C         87.96266       54.38607       57.53342
C         87.73645       53.15671       58.38548
C         87.48989       51.92111       57.75478
C         87.77459       53.21022       59.78415
C         87.31679       50.76011       58.50718
C         87.59478       52.04375       60.53901
C         87.37487       50.81380       59.90068
O         87.22006       49.67971       60.61249
H         89.98987       52.81639       57.23134
H         89.41832       55.58909       56.58694
H         87.70278       54.11085       56.48649
H         87.26586       55.20487       57.81500
H         87.45426       51.84899       56.67433
H         87.94123       54.15244       60.28749
H         87.14759       49.81658       58.00318
H         87.63137       52.09371       61.61925
H         87.26838       49.66729       61.57855
N         90.40389       55.08152       59.77943
C         90.94254       55.83317       60.91981
C         92.22992       56.60144       60.59063
O         92.69546       57.32937       61.45712
C         91.24612       54.89132       62.11759
C         90.02514       54.13396       62.67077
C         88.96417       55.00958       63.29101
O         87.95286       54.49368       63.73834
O         89.11837       56.34428       63.39298
H         90.39403       54.05513       59.81707
H         90.17953       56.57583       61.22797
H         91.68915       55.46977       62.95820
H         92.00130       54.14266       61.78880
H         90.37553       53.43079       63.45634
H         89.57903       53.52627       61.86613
N         92.86746       56.48869       59.38854
C         94.11308       57.17495       59.04872
C         93.92988       58.16684       57.90479
O         94.88639       58.86483       57.59650
C         95.16653       56.13633       58.61163
C         95.41499       55.04792       59.66246
C         96.33377       53.97048       59.15595
O         96.56506       53.00407       59.85787
O         96.89655       54.03181       57.93651
H         92.47890       55.86201       58.68509
H         94.49031       57.74433       59.92620
H         96.12873       56.64186       58.37067
H         94.78987       55.65001       57.68717
H         94.45364       54.55944       59.92426
H         95.84726       55.50406       60.57940
N         92.75817       58.27473       57.21183
C         92.56412       59.18577       56.10242
H         91.70925       59.85734       56.32579
H         93.45928       59.80960       55.90018
H         92.33085       58.60114       55.18734
H         91.95876       57.67776       57.44736
Ca        98.35702       52.39118       57.41588
O         95.92570       51.04467       57.18593
H         95.89983       50.88133       58.16224
H         95.70144       50.17178       56.78002
O        101.21448       52.69769       56.44132
H        101.90705       52.18661       56.93226
H        101.66629       53.01226       55.62112
O         99.30578       55.08146       56.41853
H         99.12797       55.11887       57.39089
H        100.12563       55.62234       56.30104

Ca 1.0



