%chk=holoCaM.loop1.water2.frame358.chk
%nprocshared=20
%mem=10GB
%nosave
#b3lyp/svp scf=(tight,noincore,xqc) Test 
#IOP(5/87=12) Density=Current Pop=(MK,readradii) iop(6/33=2) iop(6/42=6)

holoCaM.loop1.water2.frame358 

   0  1 
C         13.63010      -14.41999       85.80131
C         12.99600      -15.67944       86.31769
O         13.17678      -16.00166       87.48316
H         14.73389      -14.49986       85.88801
H         13.37769      -14.24722       84.73294
H         13.27557      -13.55010       86.39130
N         12.24135      -16.45320       85.49045
C         11.61406      -17.70344       85.90412
C         12.68902      -18.68981       86.35489
O         13.59108      -18.97417       85.57930
C         10.80546      -18.26557       84.71781
C          9.98318      -19.47395       85.03816
O          9.88272      -19.94590       86.29298
O          9.37136      -20.02067       84.13882
H         12.11192      -16.13531       84.51671
H         10.90340      -17.48445       86.73125
H         11.50617      -18.51580       83.89265
H         10.09835      -17.48714       84.35370
N         12.66568      -19.21992       87.61283
C         13.70262      -20.08049       88.16753
C         13.18486      -21.47741       88.49383
O         13.99265      -22.29360       88.91481
C         14.41894      -19.35299       89.34507
C         13.58567      -18.88519       90.56186
C         13.16975      -20.00413       91.52930
C         12.43679      -19.47660       92.78856
N         11.10397      -18.93254       92.51382
H         11.87928      -18.99591       88.22097
H         14.49637      -20.24278       87.40538
H         14.84346      -18.42562       88.89892
H         15.27985      -19.95744       89.70395
H         12.72527      -18.29807       90.21313
H         14.22833      -18.19205       91.14829
H         14.09990      -20.50312       91.87546
H         12.56439      -20.76423       91.01938
H         13.06098      -18.69398       93.27222
H         12.32331      -20.31363       93.51191
H         10.45024      -19.68984       92.22751
H         10.71725      -18.50670       93.38653
H         11.14021      -18.19645       91.78196
N         11.88793      -21.85599       88.25355
C         11.40694      -23.22968       88.40752
C         10.96091      -23.81364       87.06852
O         10.53800      -24.96236       87.05283
C         10.18722      -23.31180       89.35824
C         10.33731      -22.53290       90.61935
O         10.34402      -21.31834       90.56027
O         10.35934      -23.14620       91.81714
H         11.21369      -21.16615       87.90571
H         12.21764      -23.86812       88.82174
H         10.00341      -24.38209       89.59869
H          9.27780      -22.91272       88.85985
N         10.96916      -23.08163       85.91138
C         10.41771      -23.57902       84.66060
C          8.90002      -23.72341       84.67607
O          8.36294      -24.18650       83.68021
H         11.37099      -22.13494       85.89285
H         10.89595      -24.55169       84.41670
H         10.66138      -22.86290       83.84593
N          8.13683      -23.34308       85.74485
C          6.68170      -23.50374       85.79617
C          5.95528      -22.71386       84.70999
O          4.83659      -23.07106       84.37004
C          6.14792      -23.13740       87.20296
C          6.15672      -21.62853       87.50514
O          6.01106      -21.41883       88.88138
O          7.35363      -21.01737       87.12122
H          8.60699      -22.95874       86.57144
H          6.48564      -24.58739       85.63623
H          6.76100      -23.68429       87.95393
H          5.09814      -23.48488       87.31482
N          6.52357      -21.60577       84.15456
C          5.94181      -20.82883       83.07209
C          5.56118      -19.41769       83.48084
O          5.19149      -18.65528       82.59863
H          7.43030      -21.29147       84.51137
H          5.03136      -21.31435       82.65989
H          6.69433      -20.78209       82.25537
N          5.54168      -19.01477       84.78655
C          5.04691      -17.70717       85.21840
C          6.02357      -16.98867       86.14324
O          7.06022      -17.53165       86.50235
C          3.66209      -17.87879       85.90743
C          2.55007      -18.18751       84.89666
O          3.70436      -18.85509       86.91903
H          5.79679      -19.68856       85.51968
H          4.91005      -17.03037       84.34608
H          3.35256      -16.92315       86.37823
H          3.66877      -19.75176       86.49240
H          1.57905      -18.27340       85.42952
H          2.47061      -17.35571       84.16377
H          2.74861      -19.13280       84.35149
N          5.72380      -15.71761       86.54643
C          6.52879      -14.88750       87.43542
C          5.68566      -14.53134       88.65586
O          4.62112      -13.94686       88.50549
C          6.99763      -13.61439       86.66366
C          7.99090      -14.03209       85.54582
C          7.63632      -12.57265       87.60360
C          8.46989      -12.87591       84.66639
H          4.85770      -15.28854       86.18602
H          7.43678      -15.43149       87.77776
H          6.10421      -13.13284       86.20611
H          7.49930      -14.77021       84.87719
H          8.88174      -14.51990       86.00154
H          7.88743      -11.64237       87.05794
H          6.92184      -12.26238       88.39050
H          8.55374      -12.97278       88.07321
H          9.05251      -12.13411       85.24920
H          9.14264      -13.27210       83.87701
H          7.60493      -12.37548       84.18332
N          6.12192      -14.85304       89.90576
C          5.41689      -14.51735       91.13501
C          5.72557      -13.08452       91.54064
O          6.52734      -12.42286       90.89778
C          5.83319      -15.48492       92.28927
C          5.51994      -16.94461       91.96959
O          7.20500      -15.36324       92.55252
H          7.02339      -15.31887       89.99760
H          4.32216      -14.63229       90.97524
H          5.25704      -15.21647       93.20231
H          7.37095      -15.75791       93.44846
H          6.12935      -17.27924       91.10985
H          5.78469      -17.58386       92.83882
H          4.43966      -17.07382       91.75128
N          5.14564      -12.56237       92.65346
C          5.49289      -11.26309       93.22191
C          6.97634      -11.23541       93.56129
O          7.64164      -10.26903       93.21707
C          4.61168      -10.99414       94.47269
C          5.02039       -9.72344       95.22320
O          3.27059      -10.84118       94.07597
H          4.46133      -13.14872       93.15264
H          5.28068      -10.45026       92.49053
H          4.70485      -11.83463       95.20019
H          2.88975      -11.74468       93.93129
H          4.33695       -9.56588       96.08495
H          6.05163       -9.81734       95.62446
H          4.96541       -8.83860       94.55479
N          7.56200      -12.27857       94.21343
C          8.98171      -12.31284       94.55780
C          9.85456      -12.20308       93.31267
O         10.69342      -11.31548       93.24683
C          9.35546      -13.61510       95.31289
C          8.52905      -13.92044       96.57814
C          8.54649      -12.79334       97.61728
C          7.77768      -13.21441       98.87753
N          7.75706      -12.13695       99.86518
H          6.96619      -13.08098       94.45950
H          9.20746      -11.45539       95.22901
H         10.42776      -13.54709       95.60258
H          9.24642      -14.49060       94.63707
H          8.95104      -14.84354       97.03306
H          7.47599      -14.14291       96.30791
H          8.06379      -11.88778       97.19088
H          9.59661      -12.55224       97.88991
H          8.26334      -14.11162       99.32241
H          6.73094      -13.48065       98.60758
H          7.25001      -12.46611      100.71837
H          8.73325      -11.87266      100.13128
H          7.25807      -11.30434       99.47547
N          9.70443      -13.08801       92.28584
C         10.53253      -13.10019       91.07983
C         10.42292      -11.82299       90.25919
O         11.24119      -11.64083       89.36708
C         10.12211      -14.27656       90.16476
C         10.39005      -15.64975       90.78407
C          9.87913      -16.73689       89.88409
O          8.56792      -16.93568       89.69257
O         10.66074      -17.47637       89.33515
H          8.97443      -13.79977       92.38461
H         11.59516      -13.21683       91.39150
H         10.69009      -14.23024       89.20728
H          9.04209      -14.17306       89.93677
H          9.91287      -15.77284       91.77709
H         11.49065      -15.75304       90.91222
N          9.42869      -10.91629       90.45601
C          9.31658       -9.71463       89.66089
H          8.41395       -9.14431       89.96622
H         10.21295       -9.07714       89.81228
H          9.22377       -9.97760       88.58572
H          8.70994      -11.08740       91.16605
Ca         7.99383      -20.31631       89.15692
O          5.21150      -18.21696       89.06809
H          4.68457      -18.77805       89.69083
H          5.76935      -18.86001       88.56612
O          7.49900      -19.63636       91.88386
H          7.86102      -20.22447       92.59224
H          6.69635      -20.11246       91.55155

Ca 1.0



