%chk=holoCaM.loop4.water3.frame53.chk
%nprocshared=20
%mem=10GB
%nosave
#b3lyp/svp scf=(tight,noincore,xqc) Test 
#IOP(5/87=12) Density=Current Pop=(MK,readradii) iop(6/33=2) iop(6/42=6)

holoCaM.loop4.water3.frame53 

   -3  1 
C        101.23501       91.31206       26.65285
C        101.36270       92.69629       27.20976
O        100.61645       93.03023       28.11333
H        101.04555       91.34547       25.56271
H        102.17877       90.75980       26.85258
H        100.40625       90.76498       27.15469
N        102.34093       93.53478       26.76359
C        102.65606       94.80030       27.41578
C        102.77087       95.96233       26.43113
O        103.52645       95.84445       25.47592
C        104.01937       94.61367       28.10495
C        104.37268       95.73737       29.02360
O        103.54050       96.57315       29.33440
O        105.60282       95.78292       29.56572
H        102.97046       93.19984       26.01801
H        101.90084       95.03481       28.19806
H        104.80519       94.50865       27.32556
H        104.02105       93.68910       28.71995
N        102.12095       97.14702       26.65281
C        102.31984       98.34106       25.82333
C        102.90217       99.53653       26.60544
O        103.19301      100.52986       25.95282
C        101.00981       98.72238       25.05507
C         99.82171       99.02401       26.00539
C        100.66129       97.60794       24.04944
C         98.55258       99.50375       25.29173
H        101.48845       97.21259       27.45945
H        103.08597       98.13053       25.04528
H        101.22010       99.63935       24.45994
H        100.12073       99.81665       26.72389
H         99.55985       98.11339       26.57155
H         99.80795       97.89576       23.40324
H        101.52181       97.42665       23.37075
H        100.41312       96.66120       24.57394
H         98.75587      100.43073       24.71598
H         98.14578       98.72814       24.61129
H         97.76521       99.71825       26.04496
N        103.09343       99.54629       27.96680
C        103.59253      100.72612       28.69660
C        104.69173      100.44784       29.74975
O        105.11972      101.39852       30.38974
C        102.39753      101.49734       29.29767
C        101.58792      100.75258       30.31792
O        101.90437       99.49929       30.68296
O        100.62055      101.29791       30.82262
H        102.77356       98.74096       28.51311
H        104.04895      101.44207       27.97827
H        101.71722      101.78080       28.46427
H        102.76708      102.43641       29.76386
N        105.23517       99.21203       29.95591
C        106.35477       98.93507       30.86487
C        106.08337       99.01662       32.37028
O        107.01341       98.77725       33.12723
H        104.92286       98.44387       29.35958
H        107.19674       99.61295       30.60803
H        106.70180       97.89674       30.67693
N        104.86502       99.33485       32.88465
C        104.56235       99.45617       34.32430
C        104.63446       98.16899       35.16939
O        104.39477       98.26438       36.36647
C        103.13834      100.02799       34.49446
C        102.07744       99.17506       33.83687
O        102.41630       98.08629       33.10258
O        100.91225       99.51298       33.92734
H        104.12570       99.56712       32.21021
H        105.27655      100.18569       34.76855
H        103.09827      101.04162       34.04077
H        102.90852      100.14170       35.57722
N        104.93818       96.94801       34.65732
C        104.98093       95.73174       35.46495
C        103.62683       95.14967       35.88332
O        103.65255       94.10352       36.51546
H        105.21944       96.88130       33.67640
H        105.62212       95.90154       36.35731
H        105.46845       94.93771       34.85840
N        102.42168       95.69867       35.53737
C        101.12769       95.04517       35.79576
C        100.45425       94.68802       34.47888
O        101.01949       94.97672       33.43886
C        100.18955       95.95068       36.62691
C        100.68914       96.16026       38.05990
C         99.60661       96.76479       38.92429
N         99.09520       97.98960       38.66201
O         99.17596       96.12552       39.87326
H        102.40875       96.57923       35.01151
H        101.26319       94.08762       36.34285
H         99.20605       95.44299       36.71252
H        100.02209       96.92564       36.11623
H        101.60103       96.79376       38.06735
H        100.94716       95.16652       38.48827
H         99.43878       98.54978       37.86972
H         98.34726       98.37754       39.25729
N         99.24417       94.04504       34.44492
C         98.53156       93.75452       33.20198
C         97.19113       94.49019       33.19551
O         96.31854       94.20005       34.00057
C         98.42068       92.22301       32.94772
C         97.67808       91.45008       34.05006
C         97.77245       91.94129       31.58128
H         98.79727       93.77318       35.33170
H         99.12750       94.13880       32.34620
H         99.45909       91.82339       32.91071
H         96.61723       91.76072       34.12645
H         97.69659       90.36291       33.82186
H         98.17288       91.58844       35.03269
H         96.72210       92.30032       31.55786
H         98.34018       92.44749       30.77142
H         97.77477       90.85078       31.37000
N         96.99722       95.50524       32.30974
C         95.77677       96.31102       32.19493
C         94.65264       95.47539       31.58901
O         94.91280       94.36169       31.16620
C         96.15349       97.52265       31.29733
C         95.26499       98.72279       31.10662
N         95.73086       99.75491       30.36284
O         94.16672       98.80643       31.62393
H         97.79362       95.74732       31.70595
H         95.50109       96.67739       33.20740
H         96.42598       97.13812       30.29563
H         97.05270       97.94842       31.76043
H         96.66917       99.71189       29.93507
H         95.16177      100.60060       30.21552
N         93.37303       95.93697       31.51952
C         92.29720       95.23156       30.82664
C         92.58312       95.17442       29.33076
O         92.56789       94.08966       28.76691
C         90.91438       95.85409       31.15504
C         90.69954       97.28891       30.72937
C         90.23403       97.58718       29.43701
C         90.92216       98.34074       31.63470
C         90.01169       98.91346       29.05406
C         90.70604       99.66580       31.24799
C         90.24965       99.95790       29.95925
O         90.03777      101.24154       29.60571
H         93.14939       96.81433       31.99301
H         92.23613       94.19219       31.22283
H         90.78286       95.78973       32.25790
H         90.09986       95.22874       30.72790
H         90.03948       96.79198       28.72801
H         91.26880       98.13741       32.64018
H         89.65166       99.12743       28.05573
H         90.88961      100.46602       31.95395
H         89.71244      101.48684       28.72793
N         92.88957       96.30807       28.63121
C         93.20794       96.31260       27.19990
C         94.47451       95.52503       26.85551
O         94.70632       95.28095       25.67960
C         93.32169       97.75977       26.65980
C         94.45936       98.57918       27.30939
C         94.53636       99.99420       26.80120
O         93.76592      100.40675       25.94810
O         95.46600      100.82581       27.30825
H         92.87937       97.19843       29.14487
H         92.35271       95.82920       26.67628
H         92.35433       98.27674       26.84451
H         93.48574       97.72387       25.55973
H         95.43631       98.08639       27.12234
H         94.30246       98.64010       28.40129
N         95.33207       95.09368       27.82184
C         96.51644       94.27992       27.57040
C         96.18506       92.80644       27.73204
O         96.73522       91.99998       26.99532
C         97.64874       94.68376       28.54152
C         98.17815       96.09165       28.22725
C         99.22869       96.60176       29.18454
O         99.71066       95.85589       30.19890
O         99.63882       97.74221       29.05581
H         95.13055       95.32770       28.80082
H         96.89049       94.42128       26.53024
H         98.48168       93.96924       28.44500
H         97.27348       94.62632       29.58568
H         97.33269       96.80676       28.24912
H         98.60355       96.08968       27.20074
N         95.28224       92.38353       28.65990
C         94.92173       90.99977       28.87612
H         93.83627       90.86995       28.67947
H         95.48947       90.30659       28.22300
H         95.12433       90.73701       29.93559
H         94.80372       93.07108       29.24386
Ca       101.13660       96.91018       31.62634
O        104.05950       95.35864       32.16136
H        104.87253       94.80807       32.28627
H        104.38588       96.20304       31.76173
O        102.05875       93.91269       31.06403
H        101.49975       93.83399       30.25587
H        102.77554       93.24201       30.94201
O         99.24820       98.82107       31.94864
H         98.78304       98.95257       32.81256
H         98.84960       99.48793       31.33884

Ca 1.0



