%chk=holoCaM-CaMKII.loop1.water2.frame308.chk
%nprocshared=20
%mem=10GB
%nosave
#b3lyp/svp scf=(tight,noincore,xqc) Test 
#IOP(5/87=12) Density=Current Pop=(MK,readradii) iop(6/33=2) iop(6/42=6)

holoCaM-CaMKII.loop1.water2.frame308 

   0  1 
C         58.65862        7.95046       51.83080
C         60.00149        7.72447       52.47251
O         60.35073        6.58601       52.73755
H         57.85379        7.58909       52.50445
H         58.47972        9.02890       51.62751
H         58.60332        7.40455       50.86610
N         60.81546        8.78013       52.73963
C         62.14060        8.67243       53.35609
C         61.99436        8.13535       54.78695
O         61.49542        8.85544       55.64041
C         62.74686       10.10084       53.31401
C         64.14618       10.40818       53.75294
O         65.07150        9.49837       54.09069
O         64.47282       11.58202       53.76940
H         60.47208        9.71362       52.46123
H         62.75417        7.98333       52.73304
H         62.07730       10.74964       53.91902
H         62.69664       10.46371       52.26445
N         62.30069        6.83631       55.08928
C         62.03647        6.23299       56.40189
C         62.99324        6.66801       57.50953
O         62.62488        6.50210       58.66462
C         62.07230        4.68655       56.33671
C         61.03709        3.96956       55.43670
C         59.56864        4.12751       55.87828
C         58.85999        5.35799       55.28491
N         57.51055        5.49195       55.82991
H         62.60876        6.22850       54.31871
H         61.02987        6.53357       56.74122
H         61.92741        4.28188       57.36345
H         63.08684        4.37291       56.00934
H         61.28129        2.88973       55.55333
H         61.15193        4.20654       54.36131
H         59.51635        4.10643       56.98849
H         58.99849        3.24933       55.50162
H         58.79793        5.22762       54.18305
H         59.40060        6.29912       55.47121
H         57.56337        5.65758       56.86171
H         57.04129        6.31208       55.38202
H         56.95057        4.63024       55.63779
N         64.25726        7.11511       57.26032
C         65.23168        7.40982       58.31252
C         65.71445        8.86073       58.28906
O         66.54640        9.20496       59.11734
C         66.39293        6.38576       58.26115
C         67.28508        6.43191       57.04969
O         67.12546        7.25834       56.16734
O         68.29779        5.54944       56.95407
H         64.56220        7.19561       56.29166
H         64.76686        7.26264       59.31167
H         65.95514        5.36475       58.32947
H         67.03925        6.53069       59.15367
N         65.19282        9.78570       57.42943
C         65.52816       11.20284       57.47987
C         66.94625       11.50646       57.04696
O         67.70255       12.06682       57.82676
H         64.45784        9.50613       56.76491
H         65.33956       11.58234       58.50847
H         64.85253       11.75463       56.79173
N         67.35646       11.18491       55.78933
C         68.67908       11.46556       55.24209
C         68.61917       12.24505       53.92048
O         69.66329       12.40646       53.30286
C         69.46507       10.14250       55.09502
C         68.90644        9.11989       54.14243
O         69.55030        7.94724       54.00119
O         67.89264        9.32594       53.49843
H         66.69489       10.69101       55.19032
H         69.27357       12.07760       55.95575
H         69.52857        9.67065       56.09949
H         70.50079       10.37800       54.76803
N         67.46523       12.80694       53.44408
C         67.42183       13.58670       52.21077
C         67.49693       12.75315       50.94071
O         67.71916       13.33222       49.88781
H         66.60887       12.76540       54.01013
H         68.24793       14.33119       52.23336
H         66.47224       14.16187       52.15637
N         67.23245       11.41467       50.94228
C         67.25213       10.56978       49.74218
C         66.34740        9.35700       49.92703
O         66.36290        8.74542       50.98600
C         68.68363       10.09338       49.37232
C         69.58295       11.17944       48.77665
O         69.32021        9.47865       50.46112
H         66.93175       10.99074       51.82996
H         66.83614       11.12922       48.87479
H         68.57807        9.33535       48.56335
H         69.44854       10.16560       51.16606
H         69.09883       11.61978       47.87831
H         69.80579       11.97572       49.51239
H         70.54561       10.72347       48.45940
N         65.56356        8.92657       48.89153
C         64.64083        7.80053       48.99197
C         65.16567        6.64647       48.14980
O         65.18356        6.74666       46.93064
C         63.21739        8.24130       48.52113
C         62.69305        9.42260       49.37383
C         62.22414        7.06094       48.55407
C         61.43333       10.07679       48.79812
H         65.63238        9.40883       47.98214
H         64.57399        7.45773       50.04836
H         63.30912        8.59231       47.46812
H         63.45964       10.22499       49.41598
H         62.49838        9.07185       50.40687
H         61.22926        7.35354       48.16568
H         62.57092        6.23970       47.89893
H         62.10948        6.67259       49.58849
H         61.13680       10.93307       49.43946
H         61.64031       10.46170       47.77577
H         60.57730        9.37561       48.75763
N         65.61916        5.50952       48.75458
C         66.05849        4.32703       48.01463
C         64.86245        3.61980       47.39519
O         63.72956        4.00547       47.64089
C         66.80605        3.29813       48.92624
C         68.03369        3.87542       49.62926
O         65.94876        2.70293       49.86274
H         65.66799        5.50740       49.77664
H         66.77365        4.65223       47.22678
H         67.18733        2.47633       48.28553
H         65.61527        3.41544       50.45739
H         67.73235        4.68111       50.31950
H         68.53097        3.07925       50.22470
H         68.75624        4.27290       48.88730
N         65.04891        2.52707       46.61400
C         63.95852        1.69450       46.11639
C         63.21746        1.01603       47.26457
O         61.99580        1.04460       47.27218
C         64.49294        0.62420       45.13648
C         65.03364        1.27413       43.85669
O         65.49966       -0.13996       45.74947
H         66.01881        2.25906       46.38829
H         63.23187        2.31502       45.54276
H         63.63708       -0.03191       44.85000
H         65.56100       -0.99506       45.25016
H         65.38692        0.49009       43.15565
H         64.22617        1.85108       43.35605
H         65.87787        1.96068       44.07445
N         63.89952        0.38632       48.26752
C         63.24883       -0.34526       49.35652
C         62.26722        0.54622       50.09195
O         61.10756        0.18218       50.23318
C         64.27096       -0.89209       50.39223
C         65.13127       -2.09323       49.94761
C         66.23801       -1.78639       48.93115
C         67.08119       -3.03941       48.65427
N         68.18855       -2.73893       47.74737
H         64.92381        0.46305       48.26440
H         62.68484       -1.21141       48.94636
H         63.67225       -1.28364       51.24605
H         64.91519       -0.07801       50.79378
H         64.46826       -2.89880       49.56459
H         65.63570       -2.47333       50.86406
H         66.89368       -0.98751       49.34366
H         65.80507       -1.46030       47.96893
H         66.43361       -3.82343       48.20142
H         67.49517       -3.43480       49.60844
H         68.82931       -2.03883       48.18758
H         68.72630       -3.61665       47.56320
H         67.82591       -2.36515       46.84055
N         62.68257        1.73509       50.58983
C         61.84214        2.64824       51.35243
C         60.62976        3.06028       50.53930
O         59.51404        2.82973       50.98461
C         62.67665        3.86871       51.77016
C         63.81791        3.46033       52.72889
C         64.67016        4.64497       53.00074
O         65.20586        5.24048       52.08369
O         64.78936        5.13179       54.23415
H         63.65693        1.99767       50.39975
H         61.48828        2.14444       52.28052
H         62.03552        4.61951       52.27665
H         63.09369        4.34824       50.85512
H         64.46858        2.67335       52.30445
H         63.38926        3.06996       53.67614
N         60.77112        3.64290       49.31936
C         59.63581        3.98643       48.49198
H         58.99205        4.72637       49.01187
H         59.98564        4.42312       47.53235
H         59.04535        3.07187       48.26676
H         61.71281        3.82509       48.95443
Ca        65.14748        7.30183       54.01398
O         67.89604        4.89517       54.06405
H         67.90615        4.01718       53.60720
H         68.84432        5.06872       54.29061
O         68.40309        6.55924       51.76942
H         69.11288        5.87297       51.83543
H         68.83794        7.29530       51.27980

Ca 1.0



