%chk=holoCaM.loop4.water3.frame13.chk
%nprocshared=20
%mem=10GB
%nosave
#b3lyp/svp scf=(tight,noincore,xqc) Test 
#IOP(5/87=12) Density=Current Pop=(MK,readradii) iop(6/33=2) iop(6/42=6)

holoCaM.loop4.water3.frame13 

   -3  1 
C         68.85418       29.95099       48.28633
C         69.61438       30.24134       47.03660
O         68.98455       30.63802       46.06191
H         67.83246       29.58983       48.03962
H         69.38391       29.19680       48.89950
H         68.75407       30.89772       48.86006
N         70.98080       30.17352       47.00794
C         71.72508       30.71826       45.88947
C         73.07126       30.06603       45.60438
O         73.73143       29.56777       46.50986
C         71.94512       32.21262       46.15895
C         72.42124       32.87412       44.92579
O         71.68268       32.65705       43.80991
O         73.42948       33.56076       44.94029
H         71.48192       29.94421       47.87981
H         71.09513       30.60576       44.97544
H         72.63947       32.37283       47.01495
H         70.97193       32.68732       46.40148
N         73.57336       30.15691       44.34182
C         74.90072       29.77225       43.88513
C         75.59749       30.96740       43.20133
O         76.77651       31.15110       43.44959
C         74.79269       28.53786       42.92731
C         74.35280       27.29146       43.74729
C         76.13997       28.23963       42.22928
C         73.96127       26.07770       42.89940
H         72.94645       30.54370       43.62833
H         75.54325       29.45043       44.73701
H         74.04297       28.76377       42.13843
H         73.47702       27.53211       44.37598
H         75.17410       27.00522       44.43995
H         76.93120       28.03443       42.98217
H         76.06751       27.37176       41.54508
H         76.46102       29.09373       41.59892
H         73.70724       25.23126       43.57237
H         73.06969       26.31615       42.28583
H         74.77811       25.73743       42.23488
N         74.96145       31.74851       42.26216
C         75.67445       32.67614       41.36621
C         75.27177       34.15831       41.42839
O         75.92296       34.94504       40.75106
C         75.57254       32.11933       39.92722
C         74.17713       31.96979       39.38210
O         73.10908       32.38491       40.07625
O         74.00971       31.44974       38.29188
H         73.96380       31.59814       42.10005
H         76.75431       32.67689       41.62259
H         76.03026       31.10777       39.93587
H         76.15052       32.75844       39.22757
N         74.28092       34.63987       42.22392
C         74.01186       36.07001       42.39058
C         73.38011       36.74253       41.18175
O         73.17493       37.94810       41.23021
H         73.73703       33.97617       42.77102
H         74.95756       36.58477       42.66682
H         73.30760       36.21272       43.23948
N         72.98879       36.02801       40.09270
C         72.27317       36.58204       38.93988
C         71.00229       37.34242       39.33364
O         70.73192       38.37198       38.73515
C         71.94322       35.47154       37.89016
C         71.24142       34.25193       38.43942
O         71.07255       34.17643       39.76707
O         70.98031       33.30779       37.71412
H         73.18149       35.02046       40.09868
H         72.93841       37.30879       38.42462
H         72.90397       35.09936       37.47418
H         71.35074       35.91243       37.06168
N         70.19275       36.89804       40.33502
C         68.94323       37.52176       40.74391
C         67.77619       36.54904       40.66395
O         66.67814       36.94400       41.04194
H         70.47615       36.07538       40.86174
H         68.70922       38.41322       40.12158
H         69.05256       37.85721       41.79630
N         67.90963       35.29090       40.14718
C         66.80651       34.36717       39.92385
C         67.06777       32.99633       40.52479
O         68.10774       32.40391       40.26664
C         66.58738       34.21835       38.41063
C         66.15655       35.56501       37.80923
C         65.85166       35.46845       36.34276
N         66.83140       35.21553       35.44554
O         64.70734       35.65036       35.95530
H         68.82101       34.98793       39.78740
H         65.85873       34.76704       40.34979
H         65.77257       33.47876       38.24252
H         67.51367       33.83894       37.92292
H         66.94500       36.33435       37.95361
H         65.24138       35.89855       38.34624
H         67.80734       35.08829       35.75046
H         66.61489       35.17408       34.43872
N         66.11284       32.40378       41.28962
C         66.20194       31.04781       41.82694
C         66.21314       30.02124       40.69214
O         65.35389       30.06171       39.82308
C         65.03928       30.78931       42.82553
C         65.06039       29.34837       43.36511
C         65.14442       31.76699       44.01487
H         65.25070       32.94078       41.47142
H         67.13568       30.95047       42.42136
H         64.06338       30.94679       42.31534
H         64.89195       28.62021       42.54426
H         66.03077       29.11960       43.85624
H         64.24220       29.20756       44.10344
H         64.33277       31.58011       44.74749
H         66.12195       31.65062       44.53193
H         65.05406       32.82243       43.68651
N         67.16105       29.04445       40.68534
C         67.35654       28.03635       39.64816
C         67.02894       26.62486       40.15217
O         66.70044       26.45429       41.31658
C         68.84179       28.16776       39.21608
C         69.29429       27.32404       38.06182
N         68.68892       27.43296       36.86158
O         70.24396       26.56673       38.19614
H         67.81790       29.03961       41.46259
H         66.68252       28.24500       38.79215
H         69.49900       27.96017       40.09249
H         69.00342       29.21764       38.90764
H         67.89057       28.06887       36.72997
H         69.02687       26.88456       36.06257
N         67.06634       25.56819       39.28647
C         66.89935       24.15227       39.64248
C         68.03381       23.67263       40.53448
O         67.76508       22.96784       41.49724
C         66.71236       23.26014       38.37641
C         67.70222       23.48950       37.25284
C         68.97031       22.88917       37.24403
C         67.34050       24.33490       36.18627
C         69.87268       23.16595       36.20660
C         68.24181       24.61388       35.16068
C         69.51664       24.04721       35.17414
O         70.39098       24.36764       34.19925
H         67.23251       25.79629       38.30273
H         65.95053       24.01821       40.21121
H         65.70786       23.52501       37.97992
H         66.64522       22.17868       38.63060
H         69.26263       22.21364       38.03754
H         66.36761       24.81149       36.16725
H         70.85319       22.70741       36.21198
H         67.95574       25.29760       34.37048
H         71.30379       24.04736       34.19976
N         69.32462       24.05033       40.30784
C         70.42598       23.70928       41.21271
C         70.30619       24.41752       42.57205
O         71.07125       24.10681       43.47133
C         71.79070       24.08483       40.59386
C         72.02647       23.41562       39.23190
C         73.40979       23.69459       38.72579
O         74.48001       23.26291       39.41967
O         73.57259       24.29482       37.67529
H         69.51307       24.61801       39.47470
H         70.40988       22.60762       41.37220
H         72.59024       23.76008       41.29577
H         71.85666       25.18914       40.46811
H         71.29684       23.80416       38.49618
H         71.89471       22.31666       39.31679
N         69.38049       25.39856       42.77037
C         69.18329       26.15747       44.00315
C         67.79852       25.87525       44.58948
O         67.48242       26.43494       45.63210
C         69.29283       27.65718       43.66033
C         70.64089       28.01691       43.01361
C         70.69011       29.39114       42.40717
O         69.65414       30.24082       42.50102
O         71.68012       29.73059       41.78225
H         68.78597       25.66374       41.98693
H         69.94285       25.88616       44.76657
H         69.10810       28.30517       44.54386
H         68.48693       27.83700       42.94272
H         70.85423       27.31438       42.18372
H         71.42955       27.92695       43.77972
N         66.92196       25.02302       43.98109
C         65.60863       24.68798       44.48255
H         64.84530       24.97577       43.72809
H         65.55514       23.58815       44.63085
H         65.37895       25.19119       45.44236
H         67.17513       24.56558       43.10388
Ca        71.00056       33.00187       41.67342
O         70.76248       30.86119       39.41584
H         71.46805       30.86120       38.72405
H         70.09359       31.50966       39.08916
O         68.91157       32.90332       43.71776
H         68.78422       33.46377       44.52230
H         68.60344       32.00607       43.99173
O         70.66055       35.32132       43.09223
H         70.94620       34.97191       43.96764
H         70.86150       36.28707       43.13710

Ca 1.0



