%chk=holoCaM-CaMKII.loop2.water2.frame269.chk
%nprocshared=20
%mem=10GB
%nosave
#b3lyp/svp scf=(tight,noincore,xqc) Test 
#IOP(5/87=12) Density=Current Pop=(MK,readradii) iop(6/33=2) iop(6/42=6)

holoCaM-CaMKII.loop2.water2.frame269 

   -2  1 
C         39.54761       49.35871       50.51948
C         40.59116       50.36437       50.91252
O         41.02412       50.37659       52.05518
H         38.63865       49.87914       50.15265
H         39.94753       48.71911       49.70214
H         39.27617       48.70570       51.37512
N         41.06874       51.22614       49.97750
C         42.16178       52.15953       50.21982
C         41.78242       53.24246       51.22793
O         40.77059       53.90066       51.02957
C         42.57022       52.81607       48.88279
C         43.88880       53.52242       48.97037
O         44.32368       54.12161       48.00079
O         44.63543       53.43261       50.08450
H         40.67691       51.15890       49.02431
H         43.03056       51.56797       50.58358
H         41.77398       53.51847       48.55327
H         42.69204       52.03550       48.10154
N         42.58110       53.51071       52.30530
C         42.28864       54.54273       53.30069
C         43.33870       55.65825       53.35572
O         43.15283       56.56930       54.15175
C         42.18393       53.87784       54.67807
H         43.43936       52.95752       52.42597
H         41.31333       55.02775       53.07859
H         43.15424       53.41206       54.95689
H         41.91494       54.62462       55.45595
H         41.40116       53.09065       54.66539
N         44.45804       55.67070       52.56968
C         45.52306       56.66678       52.72769
C         46.36927       56.92143       51.46937
O         47.28690       57.72644       51.55889
C         46.41900       56.27177       53.92657
C         47.11397       54.94041       53.78642
O         47.92472       54.51325       54.77179
O         46.94778       54.23641       52.80484
H         44.62247       54.87182       51.95704
H         45.06479       57.65273       52.96710
H         45.79678       56.23329       54.84560
H         47.19069       57.05719       54.07783
N         46.11840       56.33289       50.26311
C         46.88043       56.62210       49.05641
C         48.32062       56.13379       49.05085
O         48.99256       56.41298       48.06739
H         45.30709       55.72223       50.15053
H         46.86621       57.72086       48.88515
H         46.37653       56.14310       48.18874
N         48.88328       55.41622       50.07083
C         50.29374       55.01883       50.04953
C         50.67016       54.06444       48.90586
O         51.86043       53.89885       48.67802
C         50.77094       54.48726       51.42523
C         49.94531       53.34743       52.03650
N         50.61047       52.82817       53.22462
O         49.74041       52.31167       51.13779
H         48.31877       55.19483       50.89952
H         50.88389       55.94570       49.86944
H         50.72888       55.32228       52.15772
H         51.83441       54.17475       51.33675
H         50.56951       53.54995       53.97747
H         50.08758       51.99183       53.56176
N         49.74167       53.41859       48.14143
C         50.06733       52.62713       46.95637
C         49.85143       51.13056       47.11412
O         49.98812       50.42586       46.12423
H         48.75223       53.51830       48.37873
H         51.12876       52.76323       46.65680
H         49.44265       53.00676       46.11968
N         49.61207       50.56155       48.32777
C         49.55196       49.12032       48.57013
C         48.29399       48.74773       49.34297
O         47.49429       49.61384       49.65886
C         50.81251       48.69952       49.38192
C         52.09562       48.89753       48.57375
O         50.90779       49.43358       50.57718
H         49.55898       51.17122       49.14559
H         49.54842       48.54712       47.61692
H         50.79188       47.61149       49.61336
H         50.30372       49.00067       51.23530
H         52.96889       48.55649       49.17010
H         52.05406       48.29300       47.64192
H         52.24343       49.96486       48.30955
N         48.10261       47.46086       49.74695
C         47.04043       47.03856       50.64886
C         47.69222       46.77317       51.99326
O         48.59744       45.95296       52.07115
C         46.31480       45.78094       50.08461
C         45.58626       46.13400       48.76238
C         45.32442       45.20230       51.11975
C         45.03683       44.91083       48.02304
H         48.80249       46.75001       49.48815
H         46.28442       47.84225       50.78783
H         47.08563       45.00534       49.87658
H         46.29735       46.62900       48.06757
H         44.75634       46.84546       48.96886
H         44.53963       45.94559       51.37586
H         44.84098       44.27748       50.74928
H         45.85461       44.91094       52.04917
H         44.27509       44.36975       48.61806
H         44.55248       45.23781       47.07897
H         45.86671       44.21677       47.77056
N         47.26350       47.43788       53.10320
C         47.81535       47.21536       54.43513
C         46.97552       46.19395       55.16303
O         45.99839       45.72902       54.60175
C         47.82128       48.53678       55.22607
C         48.61846       49.59875       54.53693
O         48.07907       50.63987       54.20023
O         49.93136       49.41551       54.30066
H         46.45073       48.06538       53.01810
H         48.85117       46.81594       54.36328
H         48.25725       48.37999       56.23440
H         46.77208       48.89129       55.35060
N         47.30499       45.76571       56.41306
C         46.48454       44.79902       57.12792
C         45.10983       45.38785       57.46216
O         44.13304       44.73395       57.12339
C         47.19620       44.24889       58.38341
C         46.40235       43.12389       59.00376
C         46.25929       41.89744       58.32849
C         45.79425       43.29089       60.25857
C         45.52285       40.85764       58.90263
C         45.05032       42.25131       60.82437
C         44.91666       41.03524       60.14860
H         48.17033       46.11530       56.85170
H         46.35180       43.91603       56.46116
H         47.36225       45.04137       59.12731
H         48.20125       43.85767       58.11327
H         46.72432       41.74240       57.36258
H         45.88451       44.22889       60.79197
H         45.42192       39.91438       58.38103
H         44.57662       42.38935       61.78720
H         44.34343       40.23067       60.59022
N         44.91913       46.59975       58.09681
C         43.60005       47.14289       58.43226
C         42.65639       47.32322       57.25345
O         41.48349       47.59405       57.46894
C         43.90712       48.54131       58.98499
C         45.27259       48.35397       59.59214
C         45.96575       47.50314       58.53478
H         43.15920       46.46244       59.19480
H         44.05750       49.24847       58.13316
H         43.12580       48.96301       59.65188
H         45.80863       49.29318       59.84617
H         45.14972       47.74228       60.51442
H         46.28900       48.11131       57.66466
H         46.83535       47.03275       59.01365
N         43.11907       47.23780       55.97907
C         42.31514       47.44096       54.78764
C         41.87164       46.08272       54.28528
O         40.68235       45.88222       54.08497
C         43.15230       48.21860       53.74576
C         43.56411       49.60415       54.29434
C         44.47527       50.37882       53.38332
O         44.95839       51.56614       53.79473
O         44.80879       49.94194       52.29455
H         44.11714       47.04882       55.82511
H         41.40710       48.04731       55.00894
H         42.56875       48.34597       52.80913
H         44.06713       47.63391       53.50480
H         44.11204       49.47535       55.25103
H         42.65376       50.21178       54.49041
N         42.77677       45.07589       54.13891
C         42.44225       43.72230       53.75731
H         41.36393       43.60107       53.53078
H         43.03703       43.43792       52.86517
H         42.70753       43.03758       54.59249
H         43.75831       45.25690       54.35643
Ca        47.55526       51.75313       51.50384
O         44.70049       50.05583       49.22386
H         44.54338       49.26895       49.80173
H         44.06081       49.94580       48.47785
O         46.69461       52.04787       48.63224
H         46.73127       52.99067       48.92835
H         46.86446       52.08207       47.65876

Ca 1.0



