%chk=holoCaM-CaMKII.loop4.water1.frame461.chk
%nprocshared=20
%mem=10GB
%nosave
#b3lyp/svp scf=(tight,noincore,xqc) Test 
#IOP(5/87=12) Density=Current Pop=(MK,readradii) iop(6/33=2) iop(6/42=6)

holoCaM-CaMKII.loop4.water1.frame461 

   -3  1 
C         69.74166       57.10713       21.92536
C         68.68855       56.61616       20.97512
O         67.64346       56.18294       21.42975
H         70.64280       57.46635       21.38443
H         69.33950       57.93817       22.54015
H         70.04814       56.27295       22.59189
N         68.90563       56.64054       19.63202
C         67.96501       56.11891       18.64232
C         67.72877       54.63733       18.87844
O         68.69833       53.89271       18.92886
C         68.53376       56.39566       17.23144
C         67.75627       55.76992       16.10953
O         68.36733       55.12415       15.28210
O         66.42689       55.93745       15.96448
H         69.79941       57.03595       19.29959
H         67.00204       56.65881       18.73757
H         69.57568       56.00634       17.16862
H         68.57870       57.49329       17.08060
N         66.45921       54.14273       19.03374
C         66.18432       52.74218       19.36291
C         65.53497       51.99973       18.18735
O         65.48766       50.78059       18.23751
C         65.30505       52.63533       20.66328
C         65.78159       53.62328       21.76123
C         65.28851       51.19231       21.21393
C         64.90178       53.64855       23.01619
H         65.66188       54.78826       18.93399
H         67.15532       52.23781       19.55797
H         64.26543       52.93368       20.39990
H         65.72390       54.64542       21.34452
H         66.83306       53.41157       22.05082
H         66.31555       50.88156       21.50395
H         64.62685       51.10223       22.09683
H         64.88663       50.46819       20.48425
H         63.84519       53.85596       22.74532
H         64.95649       52.69490       23.57679
H         65.25408       54.45244       23.69663
N         65.02226       52.64866       17.09558
C         64.40694       51.94531       15.96456
C         65.13776       52.19584       14.64856
O         64.69434       51.68295       13.62913
C         62.90372       52.28606       15.86814
C         62.56224       53.71785       15.54860
O         63.51551       54.64864       15.35314
O         61.38860       54.03630       15.44860
H         65.04504       53.67536       17.06233
H         64.44826       50.84647       16.12598
H         62.42294       52.01449       16.83345
H         62.45034       51.64814       15.07752
N         66.29004       52.91794       14.59187
C         67.05569       53.10298       13.37127
C         66.35428       53.96250       12.34826
O         66.21355       53.51431       11.22030
H         66.68994       53.29857       15.45876
H         67.32329       52.11229       12.94594
H         68.01375       53.59793       13.60217
N         65.92915       55.22588       12.65501
C         65.37221       56.13990       11.65832
C         66.16689       57.43838       11.53110
O         65.86851       58.18142       10.60458
C         63.87293       56.41239       11.91315
C         63.54078       57.13994       13.19008
O         62.37437       57.39235       13.44522
O         64.49837       57.52516       14.05206
H         66.01440       55.54647       13.62485
H         65.42641       55.65840       10.65781
H         63.33575       55.43962       11.91402
H         63.47679       57.01682       11.06703
N         67.17481       57.79450       12.39032
C         67.97666       58.99701       12.20066
C         67.78382       60.05944       13.26520
O         68.37555       61.11640       13.09823
H         67.41178       57.19829       13.19476
H         67.72336       59.48668       11.23607
H         69.04944       58.71242       12.14371
N         66.98339       59.89682       14.36367
C         66.70659       61.00218       15.29026
C         66.08390       60.49106       16.61269
O         66.86795       59.44716       17.07444
C         65.81951       62.05374       14.56749
C         64.50793       61.47833       13.98244
C         63.49860       61.09893       15.03122
N         62.96809       62.04326       15.84020
O         63.13533       59.93735       15.13610
H         66.54515       58.98214       14.53737
H         67.67572       61.46322       15.58596
H         66.39593       62.44931       13.70683
H         65.61183       62.92557       15.21965
H         64.74142       60.60203       13.33750
H         64.03504       62.24375       13.33121
H         63.24528       63.03132       15.74948
H         62.26711       61.78868       16.54820
N         66.02473       61.53897       17.65615
C         65.73736       60.98882       19.01312
C         64.56105       61.71946       19.65114
O         64.67221       62.90296       19.94102
C         66.99708       61.09976       19.93863
C         66.73753       60.49049       21.32883
C         68.24412       60.42069       19.35179
H         65.29691       62.23043       17.36741
H         65.45490       59.91310       18.94109
H         67.24225       62.17721       20.06661
H         66.51249       59.40629       21.24315
H         67.63134       60.61203       21.97747
H         65.89535       60.99545       21.83743
H         68.07905       59.32897       19.23311
H         68.51633       60.87065       18.37463
H         69.11309       60.56107       20.02968
N         63.39124       61.06158       19.88372
C         62.23506       61.68277       20.52660
C         62.47329       61.86213       22.01899
O         63.50562       61.44519       22.52355
C         60.99290       60.78485       20.32699
C         60.64970       60.64249       18.86608
N         60.68328       59.43330       18.26076
O         60.33432       61.63283       18.22362
H         63.31165       60.08494       19.56386
H         62.03394       62.67044       20.05534
H         60.10447       61.21478       20.83518
H         61.19576       59.78841       20.77752
H         60.94540       58.58840       18.78775
H         60.45169       59.34230       17.26030
N         61.52496       62.45435       22.80019
C         61.61387       62.50043       24.25606
C         61.51867       61.09189       24.81776
O         62.29820       60.74337       25.69083
C         60.47955       63.35724       24.85498
C         60.63091       63.48047       26.35774
C         61.76058       64.11386       26.90918
C         59.65502       62.95470       27.22056
C         61.91279       64.21285       28.29461
C         59.81034       63.05442       28.60760
C         60.94139       63.68348       29.14874
O         61.10572       63.78446       30.48326
H         60.69097       62.85536       22.34475
H         62.57770       62.97403       24.54554
H         59.50008       62.89994       24.59187
H         60.50642       64.37767       24.41570
H         62.52704       64.53124       26.26863
H         58.77861       62.45965       26.82202
H         62.78897       64.70038       28.70418
H         59.05286       62.63998       29.26058
H         60.45923       63.43041       31.11033
N         60.57004       60.22700       24.35173
C         60.43028       58.85192       24.82982
C         61.66550       57.98071       24.57747
O         61.67572       56.86106       25.07100
C         59.16748       58.18900       24.22077
C         59.25132       57.98456       22.69643
C         57.97805       57.40569       22.15345
O         57.98676       56.32727       21.58163
O         56.82231       58.08710       22.27204
H         59.91078       60.57705       23.64144
H         60.27400       58.90586       25.93037
H         58.29030       58.82908       24.46182
H         59.00418       57.19837       24.70068
H         60.08989       57.29673       22.46722
H         59.42951       58.94693       22.17881
N         62.73471       58.40951       23.83727
C         63.93833       57.61104       23.61555
C         65.17330       58.23963       24.25681
O         66.20827       57.58725       24.27460
C         64.18555       57.43158       22.10516
C         62.99540       56.78584       21.38814
C         63.28368       56.57241       19.93241
O         63.21839       55.33468       19.40798
O         63.55332       57.51909       19.21185
H         62.70242       59.33271       23.39645
H         63.81755       56.60950       24.08304
H         65.08581       56.79964       21.96225
H         64.37886       58.42659       21.64690
H         62.11308       57.44991       21.46910
H         62.75773       55.81007       21.86074
N         65.15735       59.48893       24.80201
C         66.30803       60.07369       25.45263
H         67.16184       60.13025       24.74629
H         66.06141       61.10211       25.79700
H         66.58761       59.46577       26.33884
H         64.31533       60.06458       24.75448
Ca        65.53289       57.66068       16.99657
O         61.27374       56.37671       17.25586
H         60.40108       56.29802       17.71707
H         61.04258       56.61911       16.32431

Ca 1.0



