%chk=holoCaM-CaMKII.loop2.water1.frame336.chk
%nprocshared=20
%mem=10GB
%nosave
#b3lyp/svp scf=(tight,noincore,xqc) Test 
#IOP(5/87=12) Density=Current Pop=(MK,readradii) iop(6/33=2) iop(6/42=6)

holoCaM-CaMKII.loop2.water1.frame336 

   -2  1 
C         42.81134       72.22976       63.21379
C         43.21223       73.61750       62.79293
O         43.39894       73.85922       61.60931
H         41.81750       71.97153       62.78631
H         43.55971       71.48417       62.88130
H         42.72264       72.17282       64.31947
N         43.30991       74.59605       63.73550
C         43.54544       75.99840       63.44384
C         44.98013       76.26617       63.01864
O         45.91725       75.82171       63.66591
C         43.24877       76.87962       64.66950
C         43.48696       78.29274       64.30509
O         42.72649       78.88251       63.54820
O         44.67918       78.81301       64.64810
H         43.13074       74.34106       64.71489
H         42.81723       76.33274       62.67028
H         43.94267       76.62716       65.49772
H         42.20882       76.79599       65.04274
N         45.18759       77.11746       61.98586
C         46.46092       77.57954       61.49360
C         46.50398       79.09899       61.24012
O         47.50145       79.55317       60.70015
C         46.77154       76.77778       60.23479
H         44.37851       77.46441       61.51460
H         47.24412       77.35556       62.23722
H         47.81371       76.97972       59.92032
H         46.66592       75.69254       60.47332
H         46.08003       77.02902       59.40431
N         45.48531       79.94581       61.59200
C         45.53110       81.40867       61.40752
C         45.08419       82.24221       62.63786
O         45.29934       83.44525       62.62897
C         44.68615       81.79289       60.18139
C         43.32328       81.15180       60.18758
O         42.73954       80.79775       61.34617
O         42.94480       80.59240       59.17090
H         44.63033       79.53267       61.96966
H         46.57638       81.72048       61.18995
H         45.20827       81.41367       59.27251
H         44.62338       82.89719       60.08616
N         44.44884       81.68450       63.70596
C         43.97477       82.35783       64.91365
C         42.58596       82.97481       64.81397
O         42.14099       83.55811       65.79219
H         44.28908       80.70110       63.66948
H         44.70541       83.13206       65.22331
H         43.91251       81.59928       65.72478
N         41.86443       82.93578       63.66475
C         40.65984       83.73703       63.44074
C         39.39437       83.23236       64.11583
O         38.40731       83.95853       64.10667
C         40.43721       83.89347       61.93220
C         40.22039       82.60123       61.19576
N         40.24170       82.59389       59.85049
O         40.06497       81.55854       61.79998
H         42.28147       82.44993       62.87187
H         40.87568       84.75552       63.82969
H         41.36108       84.35176       61.52574
H         39.58686       84.57543       61.73517
H         40.41573       83.46441       59.33436
H         40.12312       81.71996       59.32904
N         39.34102       82.00388       64.70233
C         38.18900       81.51376       65.44811
C         37.19111       80.70793       64.63361
O         36.14620       80.36088       65.16548
H         40.17948       81.41163       64.67641
H         37.67685       82.37212       65.93286
H         38.57008       80.82742       66.23107
N         37.44538       80.37938       63.34237
C         36.55866       79.63022       62.46021
C         37.33344       78.55930       61.68396
O         38.46993       78.78446       61.29755
C         35.88265       80.58553       61.42623
C         34.70778       81.42705       61.96874
O         36.80302       81.48823       60.86029
H         38.32754       80.69445       62.94912
H         35.75842       79.10571       63.02378
H         35.44554       79.94136       60.63269
H         37.62122       80.99809       60.60402
H         34.23868       81.95222       61.10410
H         33.90116       80.83126       62.45167
H         35.04882       82.20257       62.68265
N         36.71521       77.39522       61.33080
C         37.31498       76.40180       60.43822
C         37.26333       76.91529       59.00558
O         36.21651       77.31967       58.52185
C         36.68082       74.98086       60.61032
C         36.85879       74.53745       62.08689
C         37.32597       73.93579       59.67342
C         36.21252       73.20919       62.46466
H         35.75620       77.23728       61.66960
H         38.36935       76.26321       60.72935
H         35.60555       75.04310       60.35146
H         36.38970       75.30663       62.72918
H         37.93925       74.46420       62.34263
H         38.39845       73.81054       59.91050
H         36.85244       72.93636       59.77508
H         37.20208       74.23604       58.61464
H         36.32462       73.08500       63.56401
H         35.13693       73.22039       62.19649
H         36.70807       72.34082       61.98313
N         38.39443       76.85961       58.26525
C         38.58993       77.28007       56.89985
C         38.75363       76.05228       56.04430
O         38.78898       74.97497       56.59437
C         39.87772       78.10668       56.82767
C         39.80994       79.38160       57.60021
O         40.30474       79.39885       58.85132
O         39.66746       80.43116       56.99465
H         39.18048       76.38288       58.66472
H         37.70957       77.83528       56.52872
H         40.09554       78.34181       55.77248
H         40.74809       77.52023       57.20905
N         38.80342       76.12490       54.68914
C         38.86729       74.94546       53.82756
C         40.13594       74.12838       54.04221
O         39.98238       72.93606       54.26956
C         38.69312       75.35719       52.37521
C         38.69234       74.18253       51.44469
C         37.58543       73.32027       51.38891
C         39.78659       73.96729       50.59914
C         37.54518       72.30154       50.43304
C         39.75015       72.93609       49.65960
C         38.61684       72.12380       49.55717
H         38.73025       77.05678       54.25324
H         37.99731       74.28776       54.05768
H         39.48203       76.08124       52.09618
H         37.71360       75.87356       52.25494
H         36.74745       73.46230       52.06135
H         40.66125       74.60260       50.67454
H         36.68278       71.65364       50.35481
H         40.59309       72.77654       49.00237
H         38.56540       71.34899       48.80603
N         41.41181       74.63873       54.02089
C         42.56808       73.81298       54.33072
C         42.54482       73.22734       55.74529
O         43.28188       72.28100       55.98352
C         43.78000       74.71360       54.05419
C         43.22192       76.13131       54.13565
C         41.79072       75.98296       53.63644
H         42.58059       72.95639       53.61887
H         44.67545       74.51789       54.68540
H         44.06944       74.56364       52.99393
H         43.18278       76.44567       55.20120
H         43.80282       76.88768       53.56041
H         41.16888       76.78540       54.07679
H         41.77637       76.03672       52.52699
N         41.69313       73.68219       56.70794
C         41.57044       73.07056       58.03568
C         40.47664       72.01166       58.03636
O         40.54192       71.07643       58.82006
C         41.30048       74.12483       59.11664
C         42.20885       75.34501       58.94817
C         41.86169       76.42153       59.89987
O         42.77126       77.32669       60.18567
O         40.71823       76.75400       60.04742
H         41.11788       74.50221       56.49051
H         42.53158       72.58276       58.30135
H         41.43712       73.66846       60.11984
H         40.25498       74.46913       59.04091
H         42.06637       75.80348       57.95375
H         43.27766       75.06936       59.04062
N         39.44162       72.09838       57.15937
C         38.46220       71.07020       56.93142
H         37.57534       71.51101       56.41885
H         38.90565       70.32660       56.23727
H         38.14718       70.59524       57.87716
H         39.38852       72.89201       56.53812
Ca        41.10072       79.35290       60.95665
O         40.00369       76.70589       62.94000
H         40.11221       76.32177       62.05427
H         39.46151       75.99309       63.34260

Ca 1.0



