%chk=holoCaM.loop1.water2.frame376.chk
%nprocshared=20
%mem=10GB
%nosave
#b3lyp/svp scf=(tight,noincore,xqc) Test 
#IOP(5/87=12) Density=Current Pop=(MK,readradii) iop(6/33=2) iop(6/42=6)

holoCaM.loop1.water2.frame376 

   0  1 
C         -9.54660      106.76387       93.24239
C        -10.46719      106.25247       94.30650
O        -11.15848      107.04248       94.93372
H         -8.50375      106.46845       93.47826
H         -9.83931      106.32501       92.26440
H         -9.60574      107.87022       93.16807
N        -10.54694      104.91476       94.54093
C        -11.48027      104.33724       95.49639
C        -11.13850      104.77092       96.92706
O        -10.14239      104.32394       97.47733
C        -11.48000      102.80241       95.32658
C        -12.51855      102.07680       96.11694
O        -12.59186      100.86586       96.02430
O        -13.38440      102.73246       96.90217
H         -9.96340      104.28732       93.96465
H        -12.49239      104.70172       95.21291
H        -10.47900      102.40082       95.59354
H        -11.67873      102.56758       94.25696
N        -11.91665      105.69745       97.55807
C        -11.67595      106.24030       98.89858
C        -11.92106      105.24605      100.03710
O        -11.65226      105.60545      101.17489
C        -12.58526      107.48860       99.10175
C        -14.08028      107.11859       99.24264
C        -15.01256      108.31568       99.01215
C        -16.50292      107.92023       99.04551
N        -16.95347      107.54524      100.38611
H        -12.66300      106.12275       97.00018
H        -10.61823      106.58364       98.92645
H        -12.43470      108.14489       98.21550
H        -12.28215      108.07042       99.99916
H        -14.24083      106.67018      100.24290
H        -14.34885      106.36111       98.49161
H        -14.80449      108.70834       97.99341
H        -14.81244      109.12593       99.74394
H        -16.69154      107.08497       98.33330
H        -17.10509      108.79078       98.70578
H        -17.97273      107.31409      100.35146
H        -16.44262      106.70826      100.73306
H        -16.80783      108.34128      101.04760
N        -12.49420      104.02378       99.82420
C        -12.88407      103.10569      100.89632
C        -12.22083      101.74678      100.80185
O        -12.32737      100.99119      101.75964
C        -14.39710      102.82080      100.79871
C        -15.23401      104.05299      100.88008
O        -15.22218      104.80463      101.99616
O        -15.94888      104.36438       99.94113
H        -12.73700      103.76294       98.86829
H        -12.63734      103.54338      101.88837
H        -14.71763      102.12960      101.60825
H        -14.59310      102.31774       99.82404
N        -11.65132      101.30042       99.64916
C        -11.23589       99.92448       99.47460
C        -12.41420       98.98594       99.63518
O        -12.32938       98.07190      100.44328
H        -11.56811      101.91728       98.83164
H        -10.42634       99.67301      100.19470
H        -10.83680       99.79746       98.44533
N        -13.54384       99.15106       98.88142
C        -14.67953       98.22875       98.92166
C        -14.84086       97.49464       97.58956
O        -15.60333       96.53912       97.54765
C        -15.98185       98.97889       99.31927
C        -16.44617       99.89276       98.21586
O        -16.79669       99.41198       97.15289
O        -16.41982      101.23023       98.33228
H        -13.58685       99.95655       98.24123
H        -14.48638       97.45250       99.69339
H        -15.79181       99.55543      100.24993
H        -16.79926       98.25285       99.52286
N        -14.19969       97.91158       96.45265
C        -14.30246       97.24238       95.17103
C        -14.99752       98.05846       94.09417
O        -15.07124       97.53587       92.99149
H        -13.59753       98.73779       96.47110
H        -14.86553       96.29028       95.26466
H        -13.27438       96.98886       94.83167
N        -15.53824       99.30606       94.29307
C        -16.29402       99.99784       93.23678
C        -16.41684      101.53913       93.45071
O        -15.30058      102.06307       94.10384
C        -17.75192       99.44077       93.12002
C        -17.88662       97.96650       92.72661
O        -18.46772       99.68577       94.30539
H        -15.38799       99.77871       95.19192
H        -15.72602       99.86930       92.28735
H        -18.27139       99.98981       92.31006
H        -18.10982       99.07940       95.00415
H        -17.37363       97.78064       91.76012
H        -17.48415       97.29654       93.51284
H        -18.96200       97.71678       92.60700
N        -16.57341      102.18573       92.12982
C        -16.47228      103.65582       92.05984
C        -17.85855      104.26636       91.79687
O        -18.41260      104.10373       90.71957
C        -15.37985      103.99747       90.99369
C        -13.99372      103.52477       91.53265
C        -15.33764      105.48556       90.62372
C        -12.82130      103.70330       90.56800
H        -17.34827      101.80446       91.54258
H        -16.11175      104.06570       93.02742
H        -15.62853      103.44644       90.05966
H        -14.04173      102.44219       91.77453
H        -13.75377      104.07469       92.47134
H        -16.32485      105.82950       90.25573
H        -15.02548      106.09309       91.48464
H        -14.61914      105.66521       89.79825
H        -12.63956      104.77238       90.33823
H        -11.89787      103.30848       91.04518
H        -13.00516      103.14024       89.62996
N        -18.48118      104.94874       92.80096
C        -19.79346      105.59262       92.75315
C        -19.76717      106.82698       91.86455
O        -18.75001      107.11024       91.25469
C        -20.22419      106.01393       94.19869
C        -20.41672      104.79992       95.12687
O        -19.32566      106.96272       94.73256
H        -17.99465      104.98268       93.68953
H        -20.55276      104.87445       92.37376
H        -21.22206      106.49320       94.17988
H        -18.73961      106.52915       95.40434
H        -19.47438      104.23292       95.25335
H        -20.75525      105.14410       96.12755
H        -21.19092      104.12178       94.70996
N        -20.85424      107.64422       91.78817
C        -20.86603      108.91113       91.06335
C        -19.77291      109.85105       91.57243
O        -18.95857      110.28046       90.76769
C        -22.25558      109.59581       91.16853
C        -23.34776      108.78894       90.45698
O        -22.61437      109.77076       92.51769
H        -21.70562      107.36891       92.29636
H        -20.67196      108.71516       89.98399
H        -22.18527      110.58282       90.65111
H        -23.04666      110.65986       92.60137
H        -23.09624      108.67304       89.38143
H        -23.47186      107.78149       90.90515
H        -24.31778      109.32408       90.53404
N        -19.69316      110.21920       92.88616
C        -18.69076      111.16001       93.38804
C        -17.27418      110.67585       93.15359
O        -16.48762      111.43201       92.59934
C        -18.86426      111.44828       94.89541
C        -20.14865      112.20783       95.28389
C        -20.31221      113.52515       94.49921
C        -21.30247      114.51251       95.13503
N        -22.64326      113.95520       95.30130
H        -20.37481      109.82661       93.55112
H        -18.79361      112.12459       92.84789
H        -18.01550      112.09728       95.20978
H        -18.79645      110.50544       95.48215
H        -20.05302      112.43733       96.36785
H        -21.05041      111.57451       95.14190
H        -20.62945      113.29331       93.45863
H        -19.33490      114.05380       94.45904
H        -21.35642      115.41294       94.48238
H        -20.91174      114.83384       96.12574
H        -22.62483      113.16549       95.98549
H        -23.26748      114.70239       95.68366
H        -23.02080      113.63108       94.38233
N        -16.87832      109.43142       93.54158
C        -15.52077      108.91942       93.34526
C        -15.08461      109.13290       91.89886
O        -14.06984      109.78159       91.68368
C        -15.44414      107.43061       93.77128
C        -15.58003      107.24863       95.29629
C        -15.64180      105.79522       95.69713
O        -16.59657      105.11191       95.40044
O        -14.68209      105.23598       96.43682
H        -17.59137      108.81327       93.95554
H        -14.80969      109.49397       93.98096
H        -14.45171      107.01451       93.48781
H        -16.24226      106.86681       93.24175
H        -16.49534      107.74315       95.68093
H        -14.69917      107.72874       95.77396
N        -15.84744      108.69402       90.86272
C        -15.55988      108.97657       89.46945
H        -14.63496      109.57618       89.33763
H        -15.45310      108.02721       88.90696
H        -16.40568      109.55302       89.03558
H        -16.70130      108.17234       91.07053
Ca       -15.91493      102.10708       96.31104
O        -18.99374      102.00991       96.68185
H        -19.86460      101.55376       96.79496
H        -18.79380      101.92934       95.71561
O        -18.32800      104.73186       97.95154
H        -18.93373      105.50289       98.08798
H        -18.40305      104.20655       98.78724

Ca 1.0



