%chk=holoCaM.loop3.water2.frame244.chk
%nprocshared=20
%mem=10GB
%nosave
#b3lyp/svp scf=(tight,noincore,xqc) Test 
#IOP(5/87=12) Density=Current Pop=(MK,readradii) iop(6/33=2) iop(6/42=6)

holoCaM.loop3.water2.frame244 

   0  1 
C         43.46848       74.94144       51.40717
C         42.50112       75.55737       50.44342
O         42.21770       74.96728       49.41244
H         44.34148       75.61882       51.52620
H         42.98330       74.80117       52.39427
H         43.82924       73.96055       51.03295
N         41.95921       76.77194       50.72058
C         41.08458       77.48891       49.80020
C         41.87526       77.83074       48.54858
O         42.94573       78.40951       48.68375
C         40.57949       78.76897       50.49149
C         39.53781       79.51878       49.72054
O         39.08432       79.09911       48.66749
O         39.08089       80.67144       50.22886
H         42.20383       77.21269       51.62210
H         40.20049       76.85644       49.56070
H         41.43941       79.44477       50.69047
H         40.11670       78.50158       51.46649
N         41.42533       77.49791       47.30300
C         42.23292       77.68428       46.10020
C         41.73339       78.81878       45.21741
O         42.45437       79.17871       44.29773
C         42.29367       76.37527       45.27816
C         42.66053       75.11225       46.08174
C         43.99412       75.17042       46.84075
C         45.20999       75.35895       45.92730
N         46.44453       75.34463       46.71167
H         40.49060       77.08488       47.20885
H         43.26666       77.96600       46.39566
H         43.00385       76.50538       44.43379
H         41.28889       76.18563       44.83818
H         42.67478       74.24519       45.38548
H         41.85488       74.91959       46.82075
H         44.10851       74.20949       47.38922
H         43.96538       75.98698       47.59128
H         45.13363       76.32933       45.39138
H         45.24205       74.53886       45.17624
H         46.43029       76.11587       47.41850
H         46.55004       74.42478       47.19885
H         47.25975       75.48490       46.07285
N         40.52614       79.42648       45.41815
C         40.05689       80.56047       44.61954
C         39.72857       81.78138       45.48230
O         39.34668       82.80078       44.92250
C         38.87651       80.13112       43.72154
C         37.63068       79.68979       44.43968
O         36.66632       79.31937       43.79012
O         37.55413       79.70221       45.78139
H         39.90393       79.06323       46.14992
H         40.85582       80.88724       43.91857
H         39.22372       79.29209       43.07896
H         38.60812       80.97844       43.05333
N         39.89595       81.77690       46.83730
C         39.69676       82.94215       47.68038
C         38.26461       83.42086       47.73978
O         38.02820       84.57748       47.42240
H         40.25184       80.93572       47.30794
H         40.36318       83.76094       47.32987
H         40.00175       82.69105       48.71863
N         37.26710       82.60584       48.19600
C         35.89283       83.07128       48.41168
C         35.45490       82.95474       49.87351
O         34.37432       83.43386       50.19176
C         34.91036       82.34322       47.46970
C         34.73415       80.86866       47.76078
N         33.51130       80.36582       48.04801
O         35.69290       80.11562       47.71635
H         37.50587       81.63013       48.41690
H         35.83075       84.15140       48.15714
H         35.26470       82.46528       46.42357
H         33.92119       82.84607       47.54383
H         32.68024       80.97309       48.08587
H         33.39148       79.35817       48.22185
N         36.21938       82.32188       50.81063
C         35.86293       82.17846       52.21033
C         35.55047       80.74145       52.57976
O         35.33411       80.49091       53.75565
H         37.10292       81.88913       50.53711
H         34.96969       82.78554       52.47258
H         36.71418       82.54845       52.82163
N         35.41320       79.76522       51.62950
C         34.94020       78.41902       51.93334
C         35.86064       77.37495       51.34494
O         36.36400       77.57584       50.24875
C         33.52705       78.19777       51.34924
C         32.51456       79.17141       51.91020
C         32.53876       80.53002       51.54471
C         31.53199       78.72673       52.80987
C         31.61642       81.42760       52.08509
C         30.61010       79.62722       53.35171
C         30.65283       80.98255       52.99384
O         29.77556       81.86329       53.51486
H         35.54592       79.99895       50.63573
H         34.85420       78.25526       53.03030
H         33.22603       77.15928       51.61457
H         33.52631       78.26172       50.24196
H         33.26852       80.90143       50.83970
H         31.48747       77.68593       53.10532
H         31.65433       82.47104       51.79779
H         29.86673       79.27060       54.05290
H         29.09870       81.59769       54.15335
N         36.00924       76.16796       51.96715
C         36.75047       75.06251       51.37515
C         35.76058       73.95715       51.05717
O         35.24711       73.32780       51.97201
C         37.89735       74.59410       52.31914
C         38.87210       75.77183       52.57610
C         38.64061       73.38045       51.72235
C         39.97473       75.46488       53.58968
H         35.53026       76.00516       52.86595
H         37.21438       75.38592       50.42451
H         37.44820       74.28478       53.28947
H         38.30550       76.63889       52.97742
H         39.33653       76.07844       51.61814
H         39.41599       73.00071       52.41662
H         37.94408       72.53474       51.55287
H         39.12030       73.65055       50.75847
H         40.59965       76.37167       53.73368
H         39.52945       75.18122       54.56647
H         40.64163       74.65441       53.23678
N         35.41072       73.70139       49.76179
C         34.47534       72.64265       49.39168
C         35.11543       71.28194       49.61421
O         36.30475       71.22308       49.88270
C         34.07668       72.80874       47.90782
O         33.14198       71.84630       47.50164
H         35.79767       74.30343       49.01962
H         33.55950       72.74826       50.01459
H         34.97610       72.72201       47.26009
H         33.65834       73.82664       47.73557
H         32.26155       72.13529       47.85723
N         34.39109       70.13313       49.51149
C         35.01002       68.81509       49.61252
C         35.95070       68.57200       48.44339
O         36.96994       67.92221       48.62935
C         33.94974       67.71416       49.65430
H         33.37430       70.19691       49.35183
H         35.57363       68.74630       50.57072
H         33.28323       67.87348       50.52915
H         33.33959       67.71230       48.72710
H         34.43932       66.72262       49.77090
N         35.67381       69.08723       47.20851
C         36.54681       68.92492       46.05112
C         37.92670       69.47190       46.34266
O         38.89655       68.74354       46.18300
C         35.95615       69.64335       44.83008
H         34.80960       69.63701       47.08887
H         36.62386       67.84390       45.79715
H         35.84971       70.73332       45.01934
H         36.61374       69.49775       43.94585
H         34.95495       69.22605       44.59155
N         38.08429       70.74474       46.80512
C         39.38852       71.31269       47.12742
C         40.09058       70.46278       48.17130
O         41.18331       69.98134       47.90489
C         39.26328       72.76922       47.62387
C         38.71668       73.71122       46.53797
C         38.81326       75.16236       46.98964
O         38.39445       76.02516       45.97075
O         38.00393       75.40332       48.10175
H         37.23842       71.31569       46.95230
H         40.01665       71.32590       46.20782
H         40.28199       73.12158       47.90054
H         38.61748       72.81968       48.52796
H         37.66588       73.46240       46.27606
H         39.34536       73.60980       45.62763
N         39.50738       70.20947       49.37264
C         40.12715       69.36928       50.37239
H         41.09241       69.81195       50.69528
H         39.45924       69.27861       51.25552
H         40.30169       68.35342       49.95702
H         38.58467       70.60701       49.57828
Ca        36.79699       77.08827       47.18232
O         35.78961       75.71697       44.61308
H         36.05849       76.44926       44.00317
H         34.80771       75.80958       44.69623
O         33.93078       76.61906       47.47288
H         33.28567       76.39845       48.19026
H         33.37116       76.92495       46.71563

Ca 1.0



