%chk=holoCaM.loop3.water2.frame167.chk
%nprocshared=20
%mem=10GB
%nosave
#b3lyp/svp scf=(tight,noincore,xqc) Test 
#IOP(5/87=12) Density=Current Pop=(MK,readradii) iop(6/33=2) iop(6/42=6)

holoCaM.loop3.water2.frame167 

   0  1 
C          7.22736      102.69715       -0.62010
C          7.29468      101.54001        0.33315
O          8.04248      101.61283        1.29667
H          6.91442      103.61106       -0.07413
H          8.22729      102.86323       -1.07303
H          6.49927      102.50857       -1.43762
N          6.53472      100.43087        0.12058
C          6.54947       99.25778        0.98333
C          7.63659       98.30213        0.50150
O          7.32650       97.30868       -0.13942
C          5.13620       98.62322        0.97393
C          4.94759       97.52404        1.98271
O          5.93555       97.16376        2.82340
O          3.86319       96.97334        2.06323
H          5.91457      100.41359       -0.70461
H          6.74272       99.55718        2.03881
H          4.89936       98.23977       -0.04243
H          4.39027       99.40419        1.22165
N          8.95305       98.57385        0.73985
C         10.04913       97.73770        0.24474
C         10.10911       96.34525        0.87437
O         10.90540       95.54969        0.39467
C         11.41168       98.43102        0.48011
C         11.60041       99.76004       -0.27588
C         11.67374       99.56888       -1.79992
C         12.02215      100.88620       -2.50496
N         12.15622      100.68739       -3.94805
H          9.18291       99.42929        1.26339
H          9.90276       97.59175       -0.84616
H         12.24127       97.75686        0.17164
H         11.52119       98.61871        1.57116
H         12.57078      100.18569        0.06087
H         10.80150      100.48651       -0.01528
H         10.70562       99.19427       -2.19353
H         12.46736       98.82468       -2.03062
H         12.98513      101.27501       -2.10464
H         11.22797      101.63945       -2.30523
H         12.91510       99.99470       -4.14586
H         11.25387      100.34635       -4.35171
H         12.40815      101.59737       -4.39711
N          9.32324       95.96427        1.92355
C          9.33440       94.60577        2.47889
C          8.02460       93.87642        2.20709
O          7.94369       92.69644        2.52089
C          9.71248       94.61691        3.97329
C          8.91247       95.60118        4.76239
O          7.56948       95.55589        4.80321
O          9.49155       96.51723        5.32645
H          8.66986       96.64679        2.33319
H         10.10258       93.98268        1.97234
H         10.78252       94.91244        4.05712
H          9.61030       93.60102        4.41029
N          6.99018       94.47635        1.55153
C          5.82130       93.76863        1.06946
C          4.91262       93.19364        2.12806
O          3.96179       92.53484        1.73039
H          7.06077       95.45798        1.28068
H          6.16852       92.94439        0.40901
H          5.21137       94.46156        0.44861
N          5.10494       93.36585        3.47176
C          4.22915       92.70931        4.44135
C          2.78872       93.21838        4.37680
O          1.92301       92.59235        4.97352
C          4.79721       92.78017        5.87419
C          4.61174       94.11965        6.54441
N          3.92665       94.20522        7.70955
O          5.07810       95.12896        6.04179
H          5.90758       93.91119        3.80836
H          4.23803       91.63060        4.16513
H          5.87655       92.51219        5.85190
H          4.28243       92.00730        6.48439
H          3.53186       93.36381        8.15546
H          3.79397       95.11213        8.17689
N          2.46095       94.34022        3.66817
C          1.10487       94.81063        3.45763
C          0.85283       96.21188        3.97761
O         -0.21348       96.72804        3.68211
H          3.20203       94.88222        3.20750
H          0.35067       94.13155        3.91219
H          0.92974       94.81506        2.36015
N          1.72712       96.86679        4.80552
C          1.40726       98.17081        5.39819
C          2.58122       99.13368        5.35694
O          3.69949       98.72478        5.08525
C          1.00027       97.94921        6.86584
C         -0.26418       97.13419        6.94493
C         -0.21217       95.74147        7.12292
C         -1.51037       97.76615        6.81291
C         -1.39287       94.99344        7.16308
C         -2.68925       97.01886        6.86783
C         -2.63419       95.62813        7.03995
O         -3.76414       94.89429        7.08636
H          2.57738       96.38150        5.12406
H          0.56612       98.65050        4.85150
H          0.84197       98.90949        7.40413
H          1.82983       97.42142        7.38602
H          0.74090       95.23391        7.21090
H         -1.56716       98.83890        6.67385
H         -1.34266       93.91911        7.28757
H         -3.64335       97.52168        6.77271
H         -4.64126       95.29616        7.00787
N          2.36755      100.46204        5.62382
C          3.43992      101.44938        5.72310
C          3.15803      102.34807        6.92796
O          2.19771      103.10440        6.87432
C          3.53058      102.32588        4.43090
C          3.63614      101.45759        3.15257
C          4.73317      103.28986        4.52890
C          3.57129      102.27825        1.85888
H          1.39734      100.78510        5.75293
H          4.40849      100.92245        5.84815
H          2.59380      102.92098        4.34785
H          2.77317      100.76025        3.11574
H          4.57215      100.85873        3.17296
H          4.65424      103.93169        5.42244
H          5.68449      102.71940        4.58690
H          4.78104      103.98091        3.66561
H          3.57324      101.60044        0.98147
H          2.63445      102.87550        1.83282
H          4.44223      102.95446        1.75346
N          3.93629      102.32772        8.04878
C          3.71346      103.25878        9.16019
C          4.14875      104.67022        8.77169
O          4.67511      104.85138        7.68848
C          4.46322      102.78713       10.41997
O          5.84079      102.72612       10.18480
H          4.68758      101.62867        8.11754
H          2.63103      103.25907        9.41756
H          4.09261      101.77540       10.69683
H          4.25405      103.48599       11.26083
H          6.26142      102.49959       11.05461
N          3.96331      105.72889        9.60945
C          4.43665      107.07789        9.29346
C          5.95519      107.11522        9.23898
O          6.50874      107.56842        8.24725
C          3.94469      108.08057       10.34068
H          3.46972      105.56975       10.50077
H          4.01183      107.40573        8.31704
H          4.32043      107.82393       11.35301
H          4.29272      109.10297       10.07523
H          2.83424      108.08778       10.35843
N          6.68695      106.62291       10.27978
C          8.14877      106.59365       10.32462
C          8.72089      105.91088        9.10037
O          9.59682      106.46588        8.45222
C          8.60929      105.84259       11.58262
H          6.16832      106.21238       11.07218
H          8.54491      107.63150       10.37884
H          8.23399      104.79528       11.57638
H          9.71854      105.82063       11.63706
H          8.22208      106.34795       12.49246
N          8.21986      104.71215        8.70815
C          8.66218      103.96961        7.53580
C          8.61079      104.83423        6.28860
O          9.62584      104.96976        5.61921
C          7.77605      102.71734        7.40199
C          8.19749      101.78599        6.26731
C          7.41830      100.50213        6.28759
O          7.77940       99.52523        5.45222
O          6.55008      100.28552        7.11760
H          7.45180      104.32292        9.27130
H          9.71300      103.63711        7.69602
H          6.71189      103.00874        7.26409
H          7.86538      102.15015        8.35631
H          9.26893      101.52491        6.40433
H          8.07335      102.28132        5.28110
N          7.47015      105.48203        5.93802
C          7.38981      106.34810        4.78454
H          6.37630      106.79934        4.72468
H          8.13516      107.16731        4.87444
H          7.58026      105.76612        3.85912
H          6.63817      105.38238        6.52613
Ca         6.89884       97.48651        5.68292
O          7.55278       96.83151        8.60191
H          6.99058       96.05996        8.33842
H          8.36157       96.75367        8.03583
O          4.54662       98.04586        7.99626
H          4.07378       97.41835        8.59744
H          4.18925       98.93579        8.24172

Ca 1.0



