%chk=holoCaM.loop1.water2.frame108.chk
%nprocshared=20
%mem=10GB
%nosave
#b3lyp/svp scf=(tight,noincore,xqc) Test 
#IOP(5/87=12) Density=Current Pop=(MK,readradii) iop(6/33=2) iop(6/42=6)

holoCaM.loop1.water2.frame108 

   0  1 
C        -22.45454        9.77277        9.05585
C        -23.75113       10.27068        8.50083
O        -24.79999        9.88300        8.97753
H        -21.84414       10.62809        9.40784
H        -22.63782        9.07373        9.89897
H        -21.90857        9.23261        8.25397
N        -23.72855       11.14261        7.45140
C        -24.94797       11.59570        6.80429
C        -25.67078       10.38082        6.21400
O        -25.14030        9.73350        5.33310
C        -24.59178       12.66710        5.74627
C        -25.81684       13.00853        5.00184
O        -25.88705       12.79001        3.80293
O        -26.86032       13.40612        5.75868
H        -22.82116       11.46883        7.09886
H        -25.59749       12.07866        7.56693
H        -23.80727       12.30323        5.05123
H        -24.22389       13.58337        6.26073
N        -26.87100        9.97936        6.75150
C        -27.45755        8.67069        6.46669
C        -28.37815        8.65835        5.24808
O        -28.72265        7.58462        4.78862
C        -28.25698        8.21091        7.71422
C        -28.51730        6.70246        7.75270
C        -29.27761        6.30641        9.03282
C        -29.12430        4.80963        9.34468
N        -27.79579        4.51965        9.90155
H        -27.23605       10.51717        7.54498
H        -26.61503        7.95765        6.31980
H        -29.19945        8.79683        7.80488
H        -27.63637        8.42320        8.61355
H        -27.51907        6.22788        7.71651
H        -29.09569        6.33809        6.87766
H        -30.34879        6.56699        8.87954
H        -28.91821        6.86817        9.92252
H        -29.31225        4.20663        8.42883
H        -29.88057        4.51962       10.10666
H        -27.68051        3.48784       10.01268
H        -27.02288        4.87185        9.29633
H        -27.70977        4.96756       10.84402
N        -28.90046        9.82060        4.75214
C        -29.93402        9.85854        3.70168
C        -29.54581       10.68999        2.48579
O        -30.21175       10.51567        1.47194
C        -31.32600       10.30169        4.26677
C        -31.31821       11.62150        4.99404
O        -30.15023       12.25056        5.08958
O        -32.30733       12.04157        5.57199
H        -28.59196       10.68380        5.20021
H        -30.08072        8.83071        3.30801
H        -31.65516        9.53214        4.99648
H        -32.07123       10.34236        3.44410
N        -28.53332       11.60656        2.47492
C        -28.13443       12.30074        1.25287
C        -28.51294       13.76768        1.24448
O        -29.33388       14.16006        0.42724
H        -28.02535       11.81362        3.34379
H        -28.61381       11.83248        0.36868
H        -27.03844       12.18403        1.09992
N        -27.90536       14.65081        2.07672
C        -28.16295       16.09072        2.07500
C        -26.99735       16.93063        2.63469
O        -27.16742       18.13585        2.75382
C        -29.48793       16.38378        2.80677
C        -29.52429       15.76969        4.16699
O        -30.43611       15.01600        4.46493
O        -28.54542       16.02269        5.05120
H        -27.23928       14.26672        2.74029
H        -28.27319       16.45325        1.02936
H        -30.33995       15.97612        2.22115
H        -29.63679       17.48035        2.89505
N        -25.77313       16.39939        2.93260
C        -24.64337       17.17419        3.41052
C        -24.87188       17.79488        4.76481
O        -24.41084       18.91066        4.95491
H        -25.57065       15.40777        2.77635
H        -24.36231       17.95482        2.66732
H        -23.77198       16.49189        3.50988
N        -25.47462       17.10615        5.78234
C        -25.58782       17.63671        7.14960
C        -25.84161       16.52262        8.18079
O        -26.11135       15.38920        7.80420
C        -26.68702       18.74378        7.29426
C        -26.56025       19.96970        6.37454
O        -27.96578       18.19004        7.15520
H        -25.77527       16.14057        5.58083
H        -24.59213       18.05572        7.41359
H        -26.61901       19.14342        8.32770
H        -28.11136       18.02445        6.19143
H        -27.35835       20.70275        6.61464
H        -25.57890       20.46738        6.51297
H        -26.70417       19.68696        5.30957
N        -25.71757       16.78362        9.51881
C        -25.87636       15.78369       10.57924
C        -26.96746       16.22809       11.55960
O        -26.81333       17.24743       12.21844
C        -24.50282       15.55333       11.29310
C        -23.50509       14.86428       10.31784
C        -24.65495       14.70871       12.57525
C        -22.07515       14.75799       10.85951
H        -25.44933       17.73728        9.80593
H        -26.18069       14.80764       10.15080
H        -24.10309       16.54731       11.59278
H        -23.44486       15.44203        9.37227
H        -23.87204       13.84188       10.07036
H        -25.34047       15.19689       13.29535
H        -25.03833       13.69707       12.33662
H        -23.69089       14.61336       13.11091
H        -22.01816       14.14181       11.77874
H        -21.42760       14.26994       10.10047
H        -21.67193       15.77091       11.06954
N        -28.09553       15.47235       11.71039
C        -29.18208       15.73919       12.66064
C        -28.85367       15.17602       14.04911
O        -27.74927       14.69798       14.24582
C        -30.49672       15.08722       12.14144
C        -30.89268       15.60906       10.76217
O        -30.35336       13.69039       12.09220
H        -28.19826       14.65636       11.09349
H        -29.37028       16.83448       12.72818
H        -31.32685       15.36006       12.82909
H        -31.25972       13.29928       12.19561
H        -31.86296       15.16291       10.46007
H        -31.00174       16.71441       10.78056
H        -30.13134       15.32127       10.01274
N        -29.78693       15.16090       15.04804
C        -29.60087       14.54166       16.36750
C        -29.29759       13.04566       16.27853
O        -28.27853       12.62446       16.80416
C        -30.85865       14.74775       17.25945
C        -31.02086       16.21721       17.66123
O        -32.01208       14.30313       16.58720
H        -30.69772       15.60082       14.85618
H        -28.73871       15.02418       16.88162
H        -30.72397       14.15693       18.19572
H        -32.76473       14.33339       17.23315
H        -31.14977       16.86769       16.77268
H        -31.91051       16.32985       18.31662
H        -30.12783       16.54963       18.23159
N        -30.15355       12.18126       15.66278
C        -29.92539       10.73547       15.57415
C        -28.62242       10.44912       14.85167
O        -27.81998        9.66945       15.34710
C        -31.11968       10.05287       14.86093
C        -32.38147       10.09822       15.74933
C        -33.61743        9.52644       15.03939
C        -34.88863        9.58421       15.91143
N        -34.80782        8.71268       17.08644
H        -30.99623       12.57143       15.21876
H        -29.85572       10.28770       16.59114
H        -30.88428        8.98209       14.66761
H        -31.30264       10.54855       13.88152
H        -32.60913       11.14471       16.04057
H        -32.16790        9.51449       16.66973
H        -33.43495        8.47736       14.72091
H        -33.80436       10.13919       14.13043
H        -35.75017        9.25611       15.28882
H        -35.08372       10.63183       16.23303
H        -35.72348        8.73843       17.59119
H        -34.61696        7.72754       16.79166
H        -34.06742        9.03917       17.74624
N        -28.33086       11.09018       13.69187
C        -27.09255       10.89896       12.93796
C        -25.85711       11.23020       13.77071
O        -24.84349       10.56626       13.60537
C        -27.13499       11.74094       11.64378
C        -28.26975       11.24221       10.71995
C        -28.44461       12.03285        9.45769
O        -29.33726       11.72464        8.68508
O        -27.64123       13.06743        9.15624
H        -29.02493       11.76989       13.34858
H        -27.00987        9.83264       12.63219
H        -26.16899       11.65964       11.09867
H        -27.28921       12.80297       11.92202
H        -29.24207       11.27577       11.24888
H        -28.06425       10.18656       10.44264
N        -25.87588       12.21345       14.70994
C        -24.73622       12.53322       15.54312
H        -23.87919       12.85570       14.91670
H        -24.99765       13.36131       16.23824
H        -24.44557       11.64800       16.14711
H        -26.73612       12.74198       14.85800
Ca       -29.01744       13.66154        6.31638
O        -31.47665       13.72120        8.07255
H        -32.20876       14.35197        7.85860
H        -31.90043       13.02732        8.63688
O        -30.20334       16.41288        7.57647
H        -29.63314       16.74299        8.31486
H        -31.10034       16.77963        7.77629

Ca 1.0



