%chk=holoCaM.loop1.water2.frame217.chk
%nprocshared=20
%mem=10GB
%nosave
#b3lyp/svp scf=(tight,noincore,xqc) Test 
#IOP(5/87=12) Density=Current Pop=(MK,readradii) iop(6/33=2) iop(6/42=6)

holoCaM.loop1.water2.frame217 

   0  1 
C         33.22302       55.89506       33.05781
C         33.02639       54.52721       33.63556
O         32.30762       54.40208       34.61779
H         33.90507       55.87068       32.18242
H         32.24131       56.29809       32.72899
H         33.65282       56.56442       33.83065
N         33.60113       53.43723       33.05378
C         33.35871       52.09278       33.54937
C         34.08913       51.86482       34.88106
O         35.22334       52.30168       35.01626
C         33.77041       51.02579       32.50309
C         33.09905       49.70489       32.79374
O         33.41030       48.70653       32.17384
O         32.08578       49.67562       33.68444
H         34.15615       53.56345       32.19302
H         32.25539       52.00868       33.66822
H         34.87886       50.92898       32.49567
H         33.44029       51.32169       31.48339
N         33.51239       51.13973       35.88211
C         34.09831       50.88337       37.19451
C         34.41712       49.40127       37.41275
O         34.94617       49.09431       38.47282
C         33.08453       51.30134       38.29165
C         32.78100       52.80496       38.35563
C         31.68143       53.06848       39.40513
C         31.46272       54.55590       39.72795
N         31.09101       55.34589       38.55501
H         32.60179       50.72523       35.70702
H         35.04993       51.44532       37.31693
H         33.47576       51.00954       39.29171
H         32.13815       50.73900       38.12299
H         32.43660       53.17360       37.36617
H         33.71451       53.33669       38.63999
H         31.95973       52.57606       40.36308
H         30.72739       52.61565       39.05324
H         32.38718       54.97707       40.18082
H         30.65051       54.62693       40.48681
H         30.23770       54.94733       38.10244
H         30.88640       56.32450       38.86214
H         31.88220       55.37778       37.87338
N         34.10919       48.42504       36.50439
C         34.32299       46.99684       36.76459
C         35.20253       46.32631       35.71913
O         35.46773       45.14048       35.86764
C         32.96493       46.27245       36.72912
C         31.96165       46.83371       37.69028
O         32.11277       46.70708       38.89456
O         30.88389       47.48071       37.21097
H         33.65504       48.68386       35.61906
H         34.79391       46.84307       37.75951
H         33.07855       45.18639       36.93578
H         32.56311       46.36578       35.69968
N         35.63123       46.97690       34.60192
C         36.31255       46.30033       33.51252
C         35.43190       45.22192       32.91617
O         35.88107       44.09731       32.75067
H         35.42177       47.97560       34.46676
H         37.28591       45.88323       33.84938
H         36.51298       47.04730       32.71359
N         34.14711       45.51751       32.57861
C         33.21808       44.59864       31.93208
C         32.75604       45.14709       30.57818
O         31.93870       44.50508       29.93338
C         32.05235       44.27262       32.89684
C         31.18852       45.42509       33.32948
O         30.23177       45.20823       34.25036
O         31.34155       46.54659       32.87762
H         33.80596       46.45882       32.80038
H         33.71668       43.62661       31.72595
H         32.49683       43.83022       33.81514
H         31.39156       43.50552       32.43835
N         33.28434       46.29772       30.05581
C         32.97536       46.81922       28.73329
C         31.58449       47.39421       28.56145
O         31.31300       47.86844       27.46634
H         34.01887       46.80248       30.56778
H         33.15292       46.02399       27.97796
H         33.68186       47.65105       28.51773
N         30.65247       47.40362       29.55684
C         29.31077       47.95789       29.38996
C         29.01486       49.04578       30.41307
O         29.79786       49.27305       31.32705
C         28.25330       46.81835       29.45942
C         28.29924       45.96941       28.18858
O         28.45823       45.96868       30.56134
H         30.88484       46.98947       30.46706
H         29.21371       48.45985       28.40128
H         27.22775       47.24483       29.51111
H         28.71241       46.52610       31.33635
H         28.07577       46.60178       27.30206
H         29.29562       45.49827       28.05773
H         27.52945       45.17041       28.24420
N         27.89157       49.80223       30.25498
C         27.49633       50.91826       31.10496
C         26.07902       50.68375       31.61164
O         25.17067       50.51528       30.80814
C         27.61840       52.24212       30.28305
C         29.10094       52.58321       29.95315
C         26.93638       53.44799       30.95196
C         29.98965       52.90256       31.17004
H         27.29347       49.61116       29.43463
H         28.15716       51.00489       31.98794
H         27.08342       52.09484       29.31789
H         29.11770       53.47213       29.28546
H         29.55981       51.74160       29.39313
H         27.36159       53.65559       31.94776
H         27.05146       54.35317       30.31871
H         25.84828       53.26916       31.05790
H         31.01369       53.15359       30.82348
H         29.60721       53.77851       31.73313
H         30.07951       52.04073       31.86014
N         25.81841       50.72661       32.95013
C         24.47527       50.68949       33.52133
C         23.94152       52.10807       33.62870
O         24.64496       53.03345       33.26685
C         24.48878       50.00790       34.92073
C         24.97073       48.55401       34.86080
O         25.24429       50.75636       35.84656
H         26.59170       50.97393       33.57704
H         23.79321       50.11649       32.85459
H         23.45097       49.96334       35.31096
H         26.19979       50.50379       35.76004
H         24.93073       48.10003       35.87410
H         24.33024       47.95828       34.17742
H         26.01598       48.52154       34.50378
N         22.70127       52.36281       34.12198
C         22.17640       53.71918       34.29797
C         23.04171       54.52738       35.25162
O         23.35682       55.66985       34.95071
C         20.72693       53.69337       34.83858
C         19.75536       53.10427       33.81170
O         20.66590       52.96234       36.03759
H         22.11776       51.56071       34.40165
H         22.15133       54.24859       33.31824
H         20.42046       54.75085       35.02373
H         19.83667       53.24169       36.50575
H         19.78777       53.70274       32.87595
H         20.00533       52.05035       33.57389
H         18.72110       53.14229       34.21284
N         23.45727       53.98119       36.42546
C         24.22806       54.69726       37.44061
C         25.49744       55.26976       36.84420
O         25.75544       56.45677       36.98689
C         24.57706       53.75562       38.62271
C         23.31255       53.20034       39.30473
C         23.64016       52.31539       40.51233
C         22.38087       51.65133       41.10302
N         21.39198       52.62694       41.56729
H         23.22326       52.99235       36.58282
H         23.61874       55.53566       37.84543
H         25.16256       54.33126       39.37396
H         25.20659       52.90886       38.26757
H         22.72948       52.58133       38.59535
H         22.68736       54.05757       39.62809
H         24.15382       52.91961       41.29100
H         24.32712       51.50081       40.19224
H         22.69192       51.01325       41.95901
H         21.91367       50.98963       40.33907
H         21.82505       53.28243       42.25691
H         20.99367       53.16216       40.76308
H         20.60418       52.11767       42.02845
N         26.32070       54.46310       36.13131
C         27.56909       54.89649       35.51294
C         27.30676       56.00241       34.50107
O         27.92018       57.05536       34.60274
C         28.27748       53.67914       34.87572
C         28.60162       52.63034       35.95907
C         29.27522       51.41418       35.42520
O         28.76947       50.73853       34.54682
O         30.40440       51.00235       36.00407
H         26.01601       53.48688       36.01090
H         28.25624       55.29306       36.29428
H         29.22113       54.00717       34.38596
H         27.61783       53.21928       34.11227
H         27.68473       52.27246       36.45931
H         29.25049       53.08809       36.73652
N         26.36515       55.84625       33.53155
C         26.00916       56.86382       32.56384
H         24.94319       57.14483       32.70595
H         26.62974       57.77804       32.66058
H         26.13109       56.45670       31.53882
H         25.84074       54.97107       33.49687
Ca        31.03408       48.26316       35.09112
O         28.09300       48.01949       36.32526
H         27.31151       47.83068       36.90223
H         28.45548       47.12545       36.10221
O         27.62140       46.99620       33.45737
H         28.00869       46.10227       33.62018
H         26.78830       46.80891       32.95643

Ca 1.0



