%chk=holoCaM.loop1.water2.frame284.chk
%nprocshared=20
%mem=10GB
%nosave
#b3lyp/svp scf=(tight,noincore,xqc) Test 
#IOP(5/87=12) Density=Current Pop=(MK,readradii) iop(6/33=2) iop(6/42=6)

holoCaM.loop1.water2.frame284 

   0  1 
C         18.84476       67.36788       43.94030
C         18.00962       66.39215       43.17220
O         18.28635       66.15250       42.00530
H         19.65901       67.77558       43.30482
H         18.20671       68.20200       44.29748
H         19.29832       66.85261       44.81388
N         16.97662       65.75798       43.79016
C         16.17464       64.74008       43.13039
C         15.34426       65.35146       41.99869
O         14.38622       66.06561       42.25644
C         15.32091       64.01183       44.18787
C         14.54046       62.84376       43.68562
O         14.53380       62.53970       42.50861
O         13.83611       62.11593       44.56277
H         16.80721       65.96471       44.78739
H         16.88371       63.98636       42.72233
H         14.61781       64.72462       44.66775
H         16.01021       63.61851       44.96739
N         15.72340       65.14370       40.70734
C         15.07445       65.71148       39.52504
C         13.67425       65.17009       39.27143
O         12.89704       65.86127       38.62822
C         15.97694       65.48172       38.27838
C         16.15402       63.98946       37.90549
C         17.35328       63.77007       36.96811
C         17.70321       62.28038       36.78382
N         16.64815       61.53035       36.10381
H         16.59506       64.62635       40.56954
H         15.00881       66.81195       39.67754
H         16.97015       65.91391       38.53467
H         15.59340       66.03456       37.39303
H         15.21395       63.59706       37.46479
H         16.35854       63.40148       38.81105
H         18.24735       64.23811       37.43711
H         17.17947       64.25921       35.98636
H         17.90823       61.82043       37.77564
H         18.63900       62.20826       36.18657
H         15.77211       61.52393       36.67210
H         16.46557       61.94527       35.16212
H         16.96502       60.54127       35.98066
N         13.32978       63.89883       39.62842
C         12.05682       63.27057       39.26601
C         11.27024       62.74027       40.46786
O         10.24523       62.10864       40.24946
C         12.29870       62.18054       38.19051
C         13.19912       61.04116       38.57719
O         13.77020       60.98413       39.78794
O         13.42613       60.15511       37.76945
H         14.03442       63.33024       40.11412
H         11.38595       64.00589       38.77076
H         12.74646       62.67021       37.29855
H         11.31818       61.75608       37.88354
N         11.63002       63.00547       41.75818
C         10.83484       62.57860       42.90651
C         10.84335       61.08089       43.19103
O         10.13643       60.67263       44.10168
H         12.43822       63.61378       41.93995
H          9.78949       62.92532       42.76108
H         11.22684       63.07761       43.82006
N         11.62709       60.20604       42.49726
C         11.69885       58.76087       42.76111
C         12.28657       58.37207       44.12998
O         12.42319       57.17994       44.37074
C         12.47265       58.04682       41.61745
C         13.87778       58.53289       41.37134
O         14.39647       59.54078       42.09638
O         14.51588       58.06998       40.44018
H         12.18348       60.58152       41.72133
H         10.66809       58.34479       42.72240
H         11.90612       58.21488       40.67525
H         12.49225       56.95104       41.80239
N         12.61910       59.28438       45.09008
C         13.14352       58.92132       46.39895
C         14.58721       58.46226       46.38160
O         15.09048       58.14625       47.45170
H         12.44018       60.27649       44.93735
H         12.49140       58.14541       46.85776
H         13.11066       59.81672       47.05670
N         15.32306       58.39868       45.23431
C         16.71176       57.95518       45.19204
C         17.61150       58.97578       44.51418
O         17.13438       59.95408       43.95494
C         16.80672       56.59307       44.45827
C         16.17929       55.45708       45.27283
O         16.23044       56.66140       43.17705
H         14.88480       58.65251       44.34212
H         17.10983       57.82474       46.22295
H         17.87536       56.31639       44.33298
H         15.24218       56.63864       43.27286
H         16.70329       55.36107       46.24740
H         15.10112       55.64516       45.45741
H         16.28872       54.50149       44.71769
N         18.96010       58.79366       44.56500
C         19.95897       59.64499       43.93249
C         20.86428       58.74700       43.07821
O         21.41230       57.77910       43.58853
C         20.72919       60.43252       45.04082
C         19.78860       61.39220       45.83556
C         21.93495       61.21809       44.49836
C         19.17800       62.55426       45.02800
H         19.31538       57.99971       45.12164
H         19.48597       60.39834       43.26932
H         21.13639       59.69045       45.76232
H         20.36333       61.84029       46.67529
H         18.95907       60.80735       46.28499
H         22.45955       61.73754       45.32899
H         22.66490       60.53781       44.01765
H         21.62349       61.97933       43.76425
H         18.54790       62.19743       44.19000
H         18.53050       63.16410       45.69310
H         19.96177       63.22934       44.62803
N         21.09039       59.05013       41.76967
C         21.99910       58.35035       40.86820
C         23.28750       59.13185       40.82668
O         23.39853       60.12361       41.52551
C         21.42212       58.28504       39.41658
C         20.17731       57.40322       39.28605
O         21.20762       59.58439       38.90572
H         20.74248       59.94376       41.44016
H         22.22376       57.32567       41.23686
H         22.16397       57.80206       38.74850
H         20.24149       59.80106       38.93398
H         20.40456       56.36460       39.60321
H         19.36016       57.80902       39.89872
H         19.84559       57.38464       38.22406
N         24.31719       58.75991       40.02830
C         25.51150       59.58340       39.90366
C         25.19329       60.91543       39.20454
O         25.84762       61.90159       39.51118
C         26.65030       58.80969       39.20909
C         27.02689       57.55601       40.02543
O         26.25915       58.44541       37.91116
H         24.24324       57.88227       39.49305
H         25.88198       59.81343       40.93011
H         27.53871       59.47992       39.16200
H         27.06636       58.08302       37.46142
H         27.32711       57.84115       41.05700
H         26.17931       56.84177       40.09599
H         27.87819       57.02778       39.54954
N         24.19127       61.02343       38.27251
C         23.82290       62.28699       37.60880
C         23.19136       63.31644       38.54670
O         22.95755       64.43698       38.11421
C         22.78263       62.03345       36.48786
C         23.27993       61.17471       35.31698
C         24.38592       61.87811       34.51804
C         24.77489       61.06821       33.27826
N         25.82353       61.75284       32.52319
H         23.68384       60.16629       38.00973
H         24.74052       62.74026       37.18086
H         22.44117       63.00188       36.05760
H         21.89215       61.54268       36.94094
H         22.41206       61.01287       34.64012
H         23.62670       60.18191       35.67346
H         25.28655       62.01571       35.15086
H         24.02005       62.87653       34.18986
H         23.88162       60.93593       32.62735
H         25.13852       60.06372       33.58840
H         26.06209       61.18698       31.67745
H         25.48956       62.69587       32.21687
H         26.67993       61.85840       33.11445
N         22.85131       63.00118       39.81950
C         22.17695       63.89126       40.75416
C         23.14280       64.22357       41.88344
O         23.32279       65.39700       42.17800
C         20.88961       63.18989       41.24579
C         19.83087       63.04610       40.12842
C         18.72820       62.10154       40.53471
O         18.95525       60.92153       40.66887
O         17.47312       62.49458       40.72954
H         23.04812       62.05468       40.15186
H         21.88012       64.85597       40.28334
H         20.42750       63.76079       42.08165
H         21.17443       62.18856       41.61805
H         20.28189       62.63250       39.20083
H         19.42177       64.05375       39.89560
N         23.86206       63.25115       42.50848
C         24.85990       63.52962       43.51587
H         25.63202       64.21611       43.10639
H         24.38388       63.97976       44.40960
H         25.36401       62.58338       43.81307
H         23.74062       62.27627       42.23455
Ca        16.13884       60.79682       41.38995
O         17.02838       59.41065       38.60702
H         16.06756       59.64449       38.64575
H         17.07877       58.67237       37.94991
O         17.33105       58.17675       41.20315
H         17.23787       57.27127       40.81262
H         18.07453       58.09527       41.85101

Ca 1.0



