%chk=holoCaM.loop2.water2.frame224.chk
%nprocshared=20
%mem=10GB
%nosave
#b3lyp/svp scf=(tight,noincore,xqc) Test 
#IOP(5/87=12) Density=Current Pop=(MK,readradii) iop(6/33=2) iop(6/42=6)

holoCaM.loop2.water2.frame224 

   -2  1 
C         27.24956       75.57505       26.66814
C         25.99272       75.11749       27.34547
O         25.43034       74.11205       26.93555
H         28.01515       74.77389       26.73934
H         27.04159       75.79408       25.60138
H         27.65795       76.49036       27.14735
N         25.50825       75.79445       28.42129
C         24.33877       75.35222       29.16551
C         23.08395       75.46251       28.30472
O         22.71663       76.56612       27.92553
C         24.24436       76.17156       30.46754
C         23.21319       75.68018       31.42464
O         22.44984       74.78222       31.12780
O         23.16328       76.21456       32.65063
H         26.03011       76.62046       28.75557
H         24.51375       74.29332       29.46300
H         24.06553       77.24771       30.25104
H         25.22038       76.07936       30.99261
N         22.41232       74.33940       27.91113
C         21.27632       74.36963       26.99369
C         20.05369       75.01066       27.63070
O         19.65573       76.07987       27.18970
C         20.95146       72.95456       26.48943
H         22.78180       73.42682       28.20709
H         21.57882       74.96063       26.09986
H         21.84235       72.52465       25.98318
H         20.67633       72.27338       27.32098
H         20.11498       72.98635       25.75984
N         19.38894       74.40311       28.65870
C         18.21499       74.99617       29.30833
C         18.53516       76.28511       30.05080
O         17.59832       76.96161       30.45357
C         17.53353       74.00363       30.28942
C         18.45329       73.45323       31.35588
O         18.03559       72.62212       32.14229
O         19.76184       73.77019       31.33675
H         19.71309       73.47338       28.95852
H         17.47579       75.23729       28.51144
H         17.15555       73.13887       29.70155
H         16.65680       74.49264       30.76805
N         19.81584       76.68375       30.29665
C         20.13493       77.91384       30.99309
C         19.56034       77.93804       32.38959
O         18.76728       78.82436       32.67450
H         20.60491       76.10642       29.98111
H         19.74065       78.77061       30.40355
H         21.23865       78.02645       31.06017
N         19.93642       77.01364       33.32187
C         19.45164       77.03600       34.70330
C         20.56478       77.35587       35.70090
O         20.27210       77.47075       36.88298
C         18.75499       75.70601       35.06420
C         19.71644       74.55382       35.25631
N         19.82614       73.95634       36.46708
O         20.40203       74.16153       34.32538
H         20.61219       76.28914       33.04182
H         18.68885       77.83713       34.81058
H         18.00060       75.44789       34.28949
H         18.20594       75.86427       36.01755
H         19.26224       74.27215       37.26946
H         20.48206       73.17843       36.61296
N         21.86031       77.50391       35.29980
C         22.96794       77.82490       36.17793
C         24.01285       76.72320       36.24668
O         25.06388       76.99213       36.81092
H         22.09646       77.41228       34.31107
H         22.63176       78.03957       37.21544
H         23.44077       78.75031       35.78379
N         23.78310       75.44682       35.79689
C         24.72970       74.34975       36.02628
C         24.90536       73.43829       34.81304
O         23.93183       72.96111       34.24945
C         24.29478       73.49175       37.23032
C         24.30990       74.28373       38.53929
O         23.01476       72.96034       37.01689
H         22.85724       75.21041       35.41144
H         25.72788       74.75265       36.30818
H         25.05173       72.67503       37.33996
H         23.05772       71.99495       37.24122
H         25.32478       74.70026       38.72138
H         23.57569       75.11505       38.51170
H         24.05374       73.61137       39.38404
N         26.16407       73.08736       34.43226
C         26.50319       72.13267       33.37427
C         26.03671       70.70680       33.72965
O         26.42753       70.18980       34.76653
C         28.05969       72.16488       33.15549
C         28.50033       73.56420       32.63448
C         28.53306       71.06849       32.18696
C         30.01887       73.75267       32.58154
H         26.94142       73.51192       34.95965
H         26.03189       72.45061       32.41686
H         28.54975       71.97007       34.13615
H         28.11986       74.36106       33.30432
H         28.06959       73.74422       31.62478
H         28.05795       71.19961       31.19463
H         29.63322       71.06891       32.06626
H         28.29564       70.07191       32.59962
H         30.24865       74.78764       32.25213
H         30.45662       73.59847       33.59095
H         30.50046       73.06327       31.86096
N         25.29725       69.98218       32.83286
C         25.05019       68.53662       32.91185
C         26.08864       67.80634       32.06688
O         26.92675       68.45985       31.47461
C         23.65334       68.19436       32.34473
C         22.53597       68.77870       33.14361
O         21.74883       69.54884       32.61978
O         22.35957       68.40714       34.42560
H         25.06041       70.43619       31.94965
H         25.14745       68.17434       33.95872
H         23.49413       67.09623       32.33941
H         23.59117       68.54983       31.29047
N         26.11061       66.44670       31.96153
C         27.11635       65.74180       31.16782
C         27.08967       66.12340       29.68498
O         28.13639       66.54250       29.21031
C         27.02099       64.21276       31.36192
C         28.06276       63.46744       30.54785
C         29.43678       63.74126       30.69991
C         27.66354       62.49177       29.61717
C         30.38422       63.06173       29.92756
C         28.61612       61.80792       28.85469
C         29.97454       62.09517       29.00681
H         25.41507       65.89470       32.48623
H         28.11243       66.03529       31.56865
H         26.00421       63.85989       31.09674
H         27.17918       63.98334       32.43793
H         29.78024       64.48538       31.40605
H         26.61541       62.25751       29.48110
H         31.43735       63.28536       30.04229
H         28.30060       61.05611       28.14297
H         30.70975       61.56867       28.41160
N         25.99100       66.01641       28.86780
C         26.04050       66.33065       27.44277
C         26.27404       67.81007       27.17433
O         26.59078       68.15845       26.04547
C         24.68897       65.83614       26.91748
C         23.78606       66.06279       28.11462
C         24.66793       65.59013       29.27058
H         26.85819       65.75975       26.94942
H         24.35356       66.28617       25.95810
H         24.75093       64.73236       26.78325
H         23.63502       67.16228       28.21470
H         22.78972       65.57440       28.06795
H         24.30608       66.07393       30.19886
H         24.66069       64.48369       29.36481
N         26.13370       68.73616       28.15840
C         26.44464       70.15068       27.99557
C         27.95556       70.30317       27.99164
O         28.49738       70.87017       27.05358
C         25.70958       70.95937       29.09983
C         24.18611       70.79543       28.85467
C         23.17920       71.33415       29.83435
O         23.47093       71.93915       31.00210
O         22.00131       71.18397       29.55041
H         25.78770       68.42708       29.07790
H         26.04419       70.53172       27.02822
H         25.97740       72.03724       29.05191
H         26.01970       70.56655       30.07975
H         23.93772       69.71770       28.78069
H         23.96402       71.26201       27.86989
N         28.70715       69.73763       28.97550
C         30.15251       69.75061       28.97646
H         30.52809       70.79187       29.03422
H         30.53064       69.18207       29.85493
H         30.53481       69.25704       28.05717
H         28.24102       69.23269       29.73300
Ca        21.48832       72.46774       31.99753
O         21.68029       71.34914       34.93452
H         22.46216       70.82505       35.23899
H         20.96955       71.12719       35.58520
O         19.18405       70.57381       33.54569
H         19.19584       69.69080       33.99113
H         18.88522       71.20553       34.24763

Ca 1.0



