%chk=holoCaM-CaMKII.loop3.water2.frame169.chk
%nprocshared=20
%mem=10GB
%nosave
#b3lyp/svp scf=(tight,noincore,xqc) Test 
#IOP(5/87=12) Density=Current Pop=(MK,readradii) iop(6/33=2) iop(6/42=6)

holoCaM-CaMKII.loop3.water2.frame169 

   0  1 
C         93.54788       36.29543       15.25827
C         92.63858       35.24053       15.81520
O         91.43624       35.34187       15.63363
H         94.61305       36.06883       15.47721
H         93.41792       36.35099       14.15778
H         93.29853       37.27937       15.70375
N         93.14845       34.19843       16.52312
C         92.34356       33.12673       17.08524
C         92.39658       33.25222       18.59133
O         93.19001       32.58533       19.24108
C         92.86775       31.78401       16.54537
C         92.10900       30.61178       17.08495
O         92.77530       29.65029       17.74257
O         90.90399       30.51138       16.91578
H         94.16637       34.16453       16.69161
H         91.27536       33.20445       16.77984
H         93.94399       31.66707       16.79925
H         92.77422       31.77599       15.44063
N         91.58776       34.16323       19.20199
C         91.61547       34.42933       20.63428
C         91.23987       33.17940       21.42709
O         92.04585       32.72324       22.22568
C         90.68139       35.61042       21.00946
C         90.92705       36.93662       20.24814
C         92.37459       37.44819       20.33120
C         92.54709       38.87417       19.76950
N         92.17934       38.98486       18.35638
H         90.94398       34.70328       18.60555
H         92.64965       34.73015       20.91236
H         90.80517       35.80659       22.09698
H         89.62010       35.33065       20.83504
H         90.24645       37.69670       20.69020
H         90.64537       36.82136       19.18167
H         93.04700       36.75434       19.78122
H         92.68792       37.47359       21.39664
H         93.61541       39.16333       19.88614
H         91.93558       39.58658       20.36590
H         92.38910       39.95582       18.02836
H         92.73319       38.30874       17.78470
H         91.15671       38.81681       18.22459
N         90.03073       32.56834       21.24692
C         89.60255       31.36704       21.98285
C         90.46403       30.12549       21.73402
O         90.23675       29.13129       22.41068
C         88.12243       31.01749       21.69583
C         87.88725       30.62468       20.26770
O         87.38909       29.55042       19.97769
O         88.16255       31.52720       19.32271
H         89.38013       33.02000       20.59171
H         89.66737       31.61429       23.06525
H         87.49023       31.90424       21.92182
H         87.79163       30.19156       22.36236
N         91.47623       30.09833       20.81989
C         92.38556       28.97159       20.68503
C         91.81060       27.74006       20.00412
O         92.53715       26.75856       19.93826
H         91.67984       30.93158       20.26011
H         92.75878       28.69966       21.69737
H         93.27424       29.29046       20.10471
N         90.54233       27.67788       19.49482
C         89.98864       26.41672       18.99117
C         90.62128       25.90265       17.69838
O         90.42242       24.73128       17.40278
C         88.45622       26.47509       18.85449
C         87.98958       27.29683       17.67834
N         87.21808       26.73416       16.72189
O         88.30308       28.47334       17.58401
H         89.93045       28.50115       19.57242
H         90.18875       25.66672       19.78966
H         88.02300       26.87826       19.79441
H         88.07747       25.43571       18.73950
H         86.93387       25.74480       16.77576
H         86.89580       27.29678       15.92646
N         91.36160       26.69591       16.86758
C         92.03567       26.18593       15.67974
C         91.61027       26.81580       14.36472
O         92.18703       26.42922       13.36158
H         91.48224       27.68943       17.09854
H         91.89459       25.08949       15.57338
H         93.12591       26.36638       15.80361
N         90.65878       27.79633       14.26798
C         90.34691       28.42768       12.97699
C         89.67815       29.78643       13.13017
O         89.24591       30.14305       14.21271
C         89.58010       27.46622       12.03047
C         88.31840       26.86284       12.62140
C         87.19209       27.64870       12.92645
C         88.25878       25.47499       12.85388
C         86.03739       27.05616       13.45605
C         87.10983       24.88869       13.39089
C         85.99448       25.67791       13.69621
O         84.88199       25.12497       14.22200
H         90.21329       28.14261       15.12593
H         91.31895       28.68850       12.50258
H         90.27306       26.63966       11.76959
H         89.33512       27.97267       11.07171
H         87.19745       28.71535       12.75021
H         89.10527       24.84021       12.62371
H         85.17614       27.66952       13.68995
H         87.08849       23.82025       13.56826
H         84.81889       24.17787       14.41431
N         89.67804       30.64470       12.05969
C         89.20603       32.02732       12.14489
C         88.13032       32.32267       11.11125
O         87.88864       31.52608       10.22008
C         90.39274       33.03415       12.00261
C         91.14249       32.87554       10.65066
C         91.34713       32.88913       13.19965
C         92.18070       33.96971       10.39079
H         90.09126       30.32527       11.17372
H         88.73792       32.19630       13.13428
H         89.97258       34.06206       12.04542
H         90.40955       32.92925        9.81804
H         91.65152       31.88911       10.60335
H         90.78635       33.02339       14.14900
H         91.82442       31.88691       13.20264
H         92.14052       33.66286       13.18252
H         92.64307       33.80657        9.39394
H         91.69437       34.96823       10.39413
H         92.99468       33.95221       11.14260
N         87.41975       33.48333       11.22558
C         86.36013       33.90288       10.31724
C         86.57885       35.35005        9.87165
O         87.55034       35.97252       10.27216
C         85.01469       33.75562       11.04983
O         84.97753       34.57866       12.18159
H         87.59814       34.07776       12.04161
H         86.32687       33.24860        9.42021
H         84.90195       32.69034       11.35509
H         84.17273       34.01881       10.37527
H         84.15358       34.33554       12.67761
N         85.66217       35.95741        9.06136
C         85.71574       37.36989        8.68334
C         85.67806       38.26005        9.90938
O         86.46796       39.18959        9.99425
C         84.52344       37.71846        7.78611
H         84.86492       35.39742        8.72839
H         86.64094       37.57560        8.10020
H         83.56323       37.53511        8.31468
H         84.56998       38.78921        7.49063
H         84.55090       37.10032        6.86436
N         84.79452       38.00880       10.91476
C         84.73045       38.77989       12.15083
C         86.06957       38.79155       12.86565
O         86.55073       39.85918       13.21782
C         83.67035       38.17532       13.08613
H         84.15833       37.20240       10.80760
H         84.42487       39.82542       11.92523
H         83.92108       37.12359       13.34702
H         83.60153       38.76373       14.02626
H         82.67491       38.18538       12.59391
N         86.71428       37.62217       13.12959
C         87.93913       37.54181       13.92604
C         89.13297       38.19800       13.24423
O         90.15801       38.36009       13.89291
C         88.29770       36.07275       14.23929
C         87.13354       35.32096       14.89773
C         87.44681       33.88850       15.16674
O         86.81029       33.00335       14.61682
O         88.20253       33.59717       16.22709
H         86.27781       36.76348       12.77494
H         87.74062       38.06186       14.89041
H         89.17431       36.04625       14.91678
H         88.57742       35.56832       13.29572
H         86.23356       35.32802       14.26394
H         86.85544       35.81111       15.85601
N         89.09527       38.56791       11.93432
C         90.21614       39.18764       11.26600
H         91.09859       38.51482       11.29960
H         89.95695       39.38083       10.20242
H         90.45885       40.15497       11.75345
H         88.25670       38.38732       11.37471
Ca        87.80111       31.61403       17.15110
O         85.22621       32.95706       17.69393
H         84.94881       32.22380       17.08885
H         85.40389       32.50974       18.55946
O         85.93758       29.72847       15.69550
H         85.26164       29.38596       16.33305
H         85.42859       30.31273       15.08000

Ca 1.0



