%chk=holoCaM.loop4.water3.frame349.chk
%nprocshared=20
%mem=10GB
%nosave
#b3lyp/svp scf=(tight,noincore,xqc) Test 
#IOP(5/87=12) Density=Current Pop=(MK,readradii) iop(6/33=2) iop(6/42=6)

holoCaM.loop4.water3.frame349 

   -3  1 
C        106.89466       47.58562       87.05245
C        106.37621       48.91594       86.60343
O        105.17850       49.14108       86.69855
H        107.64463       47.73160       87.85686
H        106.06595       46.95802       87.44759
H        107.36263       47.05997       86.19500
N        107.22670       49.84971       86.08463
C        106.76997       51.15652       85.62368
C        107.91131       51.90753       84.93846
O        108.92772       52.14388       85.57684
C        106.21623       51.99515       86.80493
C        105.41988       53.18597       86.35405
O        104.92298       54.03649       87.27146
O        105.15662       53.35242       85.17451
H        108.22295       49.59929       85.98731
H        105.95567       50.97414       84.89788
H        107.05815       52.31696       87.45488
H        105.52079       51.40572       87.43281
N        107.81196       52.29848       83.63314
C        108.89058       52.95421       82.88652
C        108.50274       54.38304       82.45714
O        109.37271       55.10061       81.98456
C        109.27517       52.02122       81.68026
C        109.78549       50.65578       82.22761
C        110.31732       52.64391       80.72988
C        110.07522       49.60391       81.15300
H        106.94163       52.08860       83.12724
H        109.78309       53.07535       83.53834
H        108.35529       51.84007       81.07815
H        109.01653       50.21503       82.89189
H        110.70345       50.81197       82.83439
H        109.92790       53.56620       80.25747
H        111.26241       52.86362       81.26824
H        110.53125       51.97144       79.87564
H        110.91949       49.90353       80.50098
H        110.36542       48.65068       81.64385
H        109.17155       49.42341       80.53444
N        107.23123       54.86555       82.58131
C        106.80696       56.19069       82.10486
C        105.90848       56.95988       83.09331
O        105.57793       58.09892       82.79276
C        106.11233       56.07378       80.72051
C        104.93261       55.14079       80.67682
O        104.66793       54.33622       81.71742
O        104.23787       55.08291       79.67561
H        106.52376       54.22899       82.95008
H        107.70113       56.83117       81.93828
H        106.84126       55.71941       79.96063
H        105.77992       57.08992       80.41196
N        105.48269       56.43508       84.27977
C        104.67901       57.16329       85.26143
C        103.25088       57.53269       84.85336
O        102.59069       58.18320       85.65072
H        105.79989       55.50291       84.54974
H        105.22512       58.09156       85.53395
H        104.59802       56.54247       86.17973
N        102.70061       57.18065       83.65796
C        101.36310       57.60377       83.21485
C        100.18860       57.14429       84.09290
O         99.31050       57.96039       84.33374
C        101.11826       57.23038       81.72733
C        101.29683       55.78117       81.37760
O        101.63125       54.89622       82.32484
O        101.22648       55.42550       80.21355
H        103.27828       56.63389       83.00553
H        101.33643       58.71741       83.21532
H        101.86543       57.78619       81.11981
H        100.10559       57.56642       81.41560
N        100.06874       55.86781       84.55804
C         98.89140       55.34762       85.25164
C         98.31692       54.10529       84.56826
O         97.40260       53.50841       85.12104
H        100.84891       55.22002       84.43154
H         98.08967       56.11251       85.33964
H         99.20271       55.05921       86.27776
N         98.81310       53.64602       83.38341
C         98.41785       52.42229       82.69238
C         99.63068       51.49412       82.59248
O        100.67678       51.84198       83.12856
C         97.91419       52.79112       81.27959
C         96.66760       53.68680       81.31852
C         96.20697       54.03356       79.92554
N         96.99278       54.76017       79.09553
O         95.10691       53.66221       79.54487
H         99.54195       54.18644       82.91795
H         97.61230       51.88602       83.24153
H         97.65419       51.86918       80.71800
H         98.72908       53.31237       80.73337
H         96.87744       54.63099       81.86518
H         95.85845       53.14299       81.85407
H         97.91771       55.09649       79.40071
H         96.67146       54.99655       78.14494
N         99.57694       50.29686       81.93383
C        100.73029       49.40238       81.80433
C        101.06413       49.17739       80.33072
O        100.26368       48.58582       79.61705
C        100.44651       48.05515       82.52932
C        101.61429       47.06748       82.38136
C        100.18104       48.28136       84.02526
H         98.68422       49.99734       81.51082
H        101.62373       49.85505       82.28990
H         99.54205       47.58646       82.08161
H        101.38522       46.11236       82.89911
H        101.78558       46.82385       81.31577
H        102.54164       47.49301       82.81611
H         99.30735       48.94746       84.17827
H         99.96410       47.31381       84.52649
H        101.06798       48.73717       84.51195
N        102.24844       49.62038       79.81389
C        102.68728       49.37300       78.43632
C        103.15031       47.92413       78.28585
O        103.20345       47.21386       79.27174
C        103.84444       50.35623       78.09812
C        104.35890       50.30982       76.67993
N        103.53895       50.54711       75.62971
O        105.54043       50.07476       76.47833
H        102.86077       50.17426       80.42983
H        101.83734       49.58547       77.75156
H        104.68984       50.16938       78.79555
H        103.48977       51.39164       78.26393
H        102.54052       50.75407       75.77184
H        103.90646       50.51855       74.66710
N        103.50242       47.41541       77.07415
C        104.05934       46.07422       76.87680
C        105.43655       45.91383       77.53200
O        105.63184       44.91775       78.21569
C        104.00318       45.67041       75.38091
C        104.58197       46.67059       74.40675
C        103.71066       47.43189       73.60389
C        105.96396       46.85823       74.27818
C        104.21152       48.38074       72.71306
C        106.46556       47.80664       73.37836
C        105.58902       48.57647       72.59959
O        106.05678       49.50412       71.74099
H        103.34803       48.00724       76.25029
H        103.38799       45.32924       77.36395
H        102.91692       45.57693       75.15560
H        104.43795       44.66083       75.21572
H        102.63728       47.30588       73.67991
H        106.65076       46.26820       74.86873
H        103.52522       48.96807       72.11590
H        107.53470       47.94583       73.28753
H        107.00252       49.68040       71.63906
N        106.41131       46.87195       77.44077
C        107.71615       46.77877       78.12280
C        107.61592       46.75937       79.65463
O        108.64701       46.63148       80.30072
C        108.63784       47.96263       77.72278
C        109.04953       47.96006       76.24382
C        109.86241       46.74330       75.89398
O        111.03035       46.50815       76.52343
O        109.47255       45.96636       75.03745
H        106.21167       47.70310       76.87020
H        108.20913       45.83031       77.81745
H        109.57846       47.93123       78.31683
H        108.12443       48.92005       77.96264
H        109.67141       48.85771       76.04031
H        108.15033       48.02586       75.60631
N        106.42488       46.85337       80.30310
C        106.25042       46.82097       81.74735
C        105.60721       45.50038       82.12650
O        106.18438       44.76887       82.91927
C        105.36709       48.01645       82.15399
C        106.09673       49.34910       81.95652
C        105.14176       50.50255       82.03721
O        105.07920       51.30403       81.11936
O        104.34677       50.66207       83.10861
H        105.56799       46.94473       79.75641
H        107.22371       46.88269       82.28629
H        105.06030       47.94005       83.22096
H        104.45023       48.00037       81.52707
H        106.59430       49.38758       80.96328
H        106.87194       49.43822       82.74468
N        104.42790       45.10849       81.57402
C        103.80873       43.83786       81.87099
H        102.87170       43.73253       81.28240
H        104.49411       43.00948       81.59168
H        103.56264       43.77815       82.95100
H        103.95652       45.71848       80.90206
Ca       102.85490       53.10532       81.95062
O        102.74788       50.75375       85.49287
H        103.06787       49.84431       85.27060
H        102.83425       50.81518       86.47691
O        101.53817       52.46388       79.43047
H        102.29833       53.09837       79.45077
H        100.94554       52.75279       80.16675
O        102.17560       53.51969       85.71699
H        101.62929       53.57370       86.54047
H        102.66312       54.38077       85.68415

Ca 1.0



