%chk=holoCaM-CaMKII.loop2.water2.frame37.chk
%nprocshared=20
%mem=10GB
%nosave
#b3lyp/svp scf=(tight,noincore,xqc) Test 
#IOP(5/87=12) Density=Current Pop=(MK,readradii) iop(6/33=2) iop(6/42=6)

holoCaM-CaMKII.loop2.water2.frame37 

   -2  1 
C         36.43340       91.36025       30.07884
C         37.00807       91.57768       31.45255
O         36.25530       91.81528       32.38331
H         35.87536       92.25818       29.74656
H         37.22964       91.14223       29.33409
H         35.74519       90.48778       30.10178
N         38.34586       91.45792       31.65673
C         38.97568       91.50525       32.97127
C         38.95961       92.88708       33.61689
O         39.43788       93.83288       33.00647
C         40.43037       91.02201       32.83947
C         41.07509       90.95982       34.18057
O         42.10533       91.57325       34.40570
O         40.47785       90.25792       35.15536
H         38.93502       91.22539       30.84136
H         38.45293       90.77579       33.63044
H         41.01191       91.68409       32.16155
H         40.43140       89.99701       32.41267
N         38.50522       93.04260       34.90020
C         38.55506       94.30497       35.63708
C         39.38034       94.23215       36.93723
O         39.49614       95.26444       37.58387
C         37.12048       94.74051       35.95666
H         38.11081       92.22367       35.38307
H         39.01383       95.09728       35.00658
H         37.11332       95.72329       36.47527
H         36.53799       94.84369       35.01594
H         36.61929       93.98911       36.60458
N         39.96117       93.08075       37.40428
C         40.61799       92.99337       38.72345
C         41.76917       91.97297       38.81030
O         42.36564       91.88257       39.87510
C         39.55944       92.71765       39.81839
C         38.64274       91.61097       39.40293
O         37.45428       91.84542       39.24679
O         39.13150       90.42409       39.01071
H         39.77482       92.20792       36.89646
H         41.09500       93.96765       38.97107
H         38.94119       93.63315       39.95194
H         40.04049       92.49792       40.79532
N         42.18054       91.21398       37.75523
C         43.34264       90.33158       37.79179
C         43.22582       89.08962       38.66437
O         44.21479       88.37518       38.75044
H         41.72222       91.33021       36.85391
H         44.22082       90.92639       38.12501
H         43.55322       89.97561       36.75960
N         42.08839       88.74822       39.33627
C         42.01371       87.58202       40.22285
C         42.21606       86.22831       39.52675
O         42.38177       85.24316       40.23287
C         40.68615       87.57374       41.01944
C         39.43421       87.47071       40.17796
N         38.22958       87.37796       40.78043
O         39.49327       87.47509       38.95877
H         41.27295       89.36372       39.26160
H         42.83500       87.69268       40.96561
H         40.61586       88.50541       41.62160
H         40.70319       86.71430       41.72400
H         38.14914       87.37624       41.80691
H         37.37585       87.29353       40.21607
N         42.18750       86.09004       38.17054
C         42.42765       84.83773       37.46431
C         41.19959       84.28165       36.75688
O         41.35864       83.32686       36.01092
H         41.99839       86.91242       37.59680
H         42.79526       84.04209       38.14818
H         43.23023       85.02575       36.71942
N         39.94059       84.74661       37.01274
C         38.71835       84.13529       36.48262
C         37.78258       85.17136       35.86148
O         38.08739       86.35322       35.86449
C         37.99484       83.39526       37.64374
C         38.81672       82.20402       38.14064
O         37.75349       84.26509       38.72128
H         39.82630       85.49486       37.70228
H         38.95303       83.39010       35.69115
H         37.03393       82.95354       37.30056
H         36.99348       84.84801       38.46177
H         38.98719       81.48752       37.30772
H         39.79731       82.53075       38.54394
H         38.26247       81.67534       38.94485
N         36.57296       84.77337       35.36362
C         35.54078       85.68263       34.87735
C         34.48983       85.80441       35.97141
O         34.02897       84.79111       36.47712
C         34.91409       85.16442       33.54420
C         35.99389       85.00561       32.44159
C         33.79305       86.12148       33.07759
C         35.45852       84.39456       31.14112
H         36.32280       83.77569       35.41397
H         35.96260       86.69053       34.68428
H         34.46330       84.16523       33.73639
H         36.79255       84.32786       32.81082
H         36.45304       85.98936       32.20979
H         33.27910       85.74289       32.17292
H         33.00459       86.21411       33.84986
H         34.20367       87.13211       32.86503
H         34.71061       85.05183       30.65356
H         36.29380       84.26184       30.42195
H         35.00142       83.40205       31.34015
N         34.04369       87.03461       36.35598
C         33.05987       87.25846       37.41210
C         31.71907       87.59661       36.79773
O         31.61866       87.63028       35.58544
C         33.53808       88.39370       38.33638
C         34.84531       88.06956       38.99487
O         34.92135       88.00533       40.33741
O         35.84580       87.88101       38.32154
H         34.37591       87.85805       35.84149
H         32.91107       86.33151       38.00820
H         32.78264       88.57292       39.12988
H         33.65349       89.33318       37.75171
N         30.61340       87.78066       37.57703
C         29.28936       87.94127       36.98879
C         29.15967       89.24425       36.19377
O         28.82347       89.14120       35.02060
C         28.16956       87.77640       38.04169
C         26.84128       87.52613       37.37535
C         25.82761       88.49631       37.39105
C         26.60932       86.29623       36.73272
C         24.60335       88.24006       36.76428
C         25.38211       86.04000       36.11971
C         24.37997       87.01235       36.13259
H         30.70270       87.70194       38.59992
H         29.15940       87.08184       36.29255
H         28.10445       88.64411       38.71150
H         28.37702       86.89932       38.69291
H         25.98909       89.45154       37.87473
H         27.37601       85.53043       36.71881
H         23.82665       88.99288       36.76889
H         25.20987       85.08681       35.63634
H         23.43064       86.81291       35.65364
N         29.41292       90.49722       36.70832
C         29.33357       91.73492       35.93074
C         30.07967       91.65982       34.61349
O         29.54978       92.06471       33.59000
C         30.01746       92.77682       36.82998
C         29.64727       92.28588       38.20213
C         29.87057       90.78276       38.06019
H         28.26371       91.99977       35.77158
H         31.12637       92.68255       36.76403
H         29.74499       93.83021       36.60383
H         30.19674       92.75879       39.04374
H         28.55632       92.47265       38.33769
H         30.94435       90.50552       38.13916
H         29.29496       90.30839       38.86653
N         31.32533       91.11301       34.58859
C         32.15292       90.99257       33.39307
C         31.41778       90.20408       32.32779
O         31.24356       90.70408       31.22516
C         33.48796       90.29021       33.73312
C         34.30347       91.05670       34.79085
C         35.54894       90.33759       35.20334
O         36.21658       90.80604       36.26265
O         35.92333       89.31738       34.65165
H         31.67894       90.73590       35.47758
H         32.38908       92.00793       33.00237
H         34.09821       90.18690       32.80974
H         33.27290       89.27234       34.12423
H         33.71606       91.16919       35.72127
H         34.56326       92.07573       34.43413
N         30.93048       88.96641       32.60559
C         30.19805       88.17376       31.64768
H         29.29295       88.72410       31.31503
H         30.84468       87.94080       30.77701
H         29.87748       87.22057       32.12176
H         31.06322       88.57789       33.54275
Ca        37.90415       89.75134       37.28208
O         40.48414       87.61662       35.74290
H         41.02217       88.25772       36.26998
H         41.13957       87.15844       35.16096
O         38.39184       88.04364       33.47052
H         37.45174       87.86926       33.22090
H         38.82813       88.26573       32.61190

Ca 1.0



