%chk=holoCaM.loop4.water3.frame319.chk
%nprocshared=20
%mem=10GB
%nosave
#b3lyp/svp scf=(tight,noincore,xqc) Test 
#IOP(5/87=12) Density=Current Pop=(MK,readradii) iop(6/33=2) iop(6/42=6)

holoCaM.loop4.water3.frame319 

   -3  1 
C        125.74654       44.82981       95.36633
C        126.14404       45.77107       96.46272
O        125.80322       45.51768       97.60883
H        125.12092       45.36303       94.62105
H        126.65652       44.43181       94.87094
H        125.16385       43.97593       95.77597
N        126.86121       46.89650       96.17807
C        127.28169       47.84605       97.20382
C        127.89359       49.09369       96.57811
O        128.82910       48.99380       95.79660
C        128.28697       47.21355       98.18780
C        128.61645       48.17845       99.29218
O        129.88508       48.58570       99.48361
O        127.72779       48.60846      100.00989
H        127.08861       47.08952       95.19005
H        126.37832       48.14190       97.78158
H        129.21219       46.91787       97.64811
H        127.85912       46.30758       98.66176
N        127.40935       50.31457       96.93174
C        127.86267       51.59293       96.40234
C        128.49070       52.42569       97.51780
O        129.59178       52.91936       97.31768
C        126.64750       52.32650       95.75054
C        126.11425       51.49754       94.54907
C        127.02826       53.75238       95.29842
C        124.80860       52.03195       93.95628
H        126.65286       50.34296       97.62358
H        128.63418       51.45402       95.61059
H        125.84310       52.41401       96.51557
H        125.90632       50.46069       94.87728
H        126.88739       51.44592       93.75129
H        126.15296       54.29180       94.88568
H        127.38050       54.35986       96.15765
H        127.82969       53.71947       94.53025
H        124.02168       52.06088       94.73873
H        124.93497       53.04254       93.52023
H        124.47102       51.35724       93.14095
N        127.84471       52.64580       98.70204
C        128.32130       53.58932       99.71923
C        128.86414       52.94351      100.99733
O        129.31175       53.68584      101.86129
C        127.21165       54.62714      100.01803
C        125.94379       54.06431      100.60919
O        125.80465       52.74876      100.84152
O        125.01991       54.81544      100.87547
H        126.95411       52.15982       98.86174
H        129.18243       54.16403       99.31476
H        126.94522       55.14010       99.06851
H        127.60867       55.39084      100.72052
N        128.93229       51.59275      101.17604
C        129.59051       50.96992      102.32649
C        128.89356       51.13487      103.67238
O        129.40184       50.60194      104.64831
H        128.59060       50.97404      100.42935
H        130.62940       51.35759      102.40135
H        129.65808       49.87775      102.13776
N        127.72628       51.81806      103.80746
C        126.98336       51.94838      105.06465
C        126.62255       50.60353      105.72451
O        126.61509       50.56105      106.94706
C        125.69455       52.78983      104.86481
C        124.77048       52.18946      103.83925
O        125.26322       51.30512      102.95201
O        123.58358       52.47101      103.83443
H        127.34447       52.27553      102.97323
H        127.61997       52.50449      105.78890
H        125.92964       53.83186      104.56018
H        125.16877       52.83728      105.84459
N        126.30731       49.48131      105.00643
C        126.00376       48.18660      105.61144
C        124.64274       47.60875      105.23084
O        124.42780       46.44379      105.53376
H        126.34013       49.51099      103.98128
H        126.06741       48.21330      106.72103
H        126.78310       47.47720      105.26568
N        123.66097       48.34737      104.62862
C        122.32807       47.81977      104.29376
C        121.97197       48.07313      102.79152
O        121.99920       49.42953      102.52615
C        121.28435       48.38368      105.29107
C        121.17259       49.92210      105.33386
C        120.20197       50.41925      106.37452
N        120.01521       51.75016      106.52700
O        119.58335       49.63721      107.08225
H        123.84183       49.34598      104.46870
H        122.31107       46.71681      104.43654
H        121.58417       48.03632      106.30515
H        120.28821       47.94604      105.06422
H        120.82391       50.30995      104.35837
H        122.16302       50.36268      105.57143
H        120.53070       52.42228      105.93916
H        119.35681       52.11040      107.23294
N        120.66509       47.54202      102.39927
C        120.51042       47.54020      100.92201
C        119.67951       48.75890      100.49845
O        118.62599       48.99840      101.07112
C        119.90744       46.19647      100.40185
C        119.67635       46.24313       98.88129
C        120.85533       45.00586      100.68317
H        120.54771       46.59615      102.81937
H        121.50159       47.60363      100.42016
H        118.92942       46.01367      100.89721
H        120.63227       46.42799       98.34484
H        119.25442       45.27918       98.52737
H        118.95181       47.03591       98.61395
H        121.03917       44.83522      101.76040
H        120.41753       44.06525      100.28726
H        121.83983       45.16653      100.19038
N        120.08311       49.53027       99.44335
C        119.37960       50.70772       98.91803
C        118.63234       50.34074       97.63562
O        118.71060       49.19495       97.21780
C        120.45227       51.80646       98.68178
C        119.98398       53.10998       98.08670
N        119.09097       53.89367       98.73246
O        120.43275       53.47053       97.00791
H        120.92553       49.22950       98.93493
H        118.61700       51.06285       99.64491
H        121.23450       51.38743       98.00956
H        120.92266       52.04044       99.65100
H        118.70645       53.61311       99.64516
H        118.78306       54.78404       98.31301
N        117.86099       51.24792       96.96231
C        117.14388       50.92485       95.73113
C        118.10503       50.43192       94.66400
O        117.91264       49.35244       94.12521
C        116.42301       52.16020       95.12664
C        115.36594       52.82477       95.97207
C        114.24552       52.11069       96.42441
C        115.46259       54.20018       96.25437
C        113.23554       52.76407       97.14014
C        114.45011       54.85118       96.96244
C        113.32931       54.13558       97.40391
O        112.33465       54.75602       98.07018
H        117.76879       52.20255       97.33162
H        116.39043       50.13414       95.94354
H        115.92115       51.83495       94.18873
H        117.17926       52.92324       94.84057
H        114.14389       51.05509       96.20925
H        116.30949       54.77887       95.90546
H        112.37042       52.20692       97.47589
H        114.53231       55.91403       97.15455
H        112.35028       55.70767       98.24773
N        119.14898       51.22176       94.29210
C        120.05785       50.91494       93.19558
C        120.79868       49.61886       93.44239
O        120.85148       48.78391       92.54938
C        121.08068       52.06014       92.98884
C        120.44629       53.44184       92.71793
C        119.49918       53.43077       91.55208
O        119.89256       53.12473       90.43821
O        118.20604       53.76201       91.73527
H        119.28439       52.09875       94.81162
H        119.47540       50.82246       92.25199
H        121.72716       51.79570       92.12253
H        121.72997       52.15231       93.88549
H        121.25633       54.17584       92.52033
H        119.90142       53.79908       93.61544
N        121.38087       49.38234       94.64978
C        122.15067       48.17986       94.96057
C        121.32463       46.93247       94.68842
O        121.74143       46.11472       93.88033
C        122.61140       48.18803       96.43704
C        123.51653       49.38371       96.79524
C        123.85801       49.42730       98.26035
O        124.49922       50.36497       98.70356
O        123.44444       48.46229       99.10058
H        121.24417       50.09487       95.38080
H        123.05582       48.15426       94.31240
H        123.16569       47.24770       96.65407
H        121.71006       48.21839       97.07967
H        123.01044       50.33989       96.56270
H        124.45021       49.32883       96.20188
N        120.12998       46.73859       95.31340
C        119.27361       45.59347       95.08106
H        118.29076       45.94432       94.70124
H        119.70233       44.88463       94.34271
H        119.11364       45.05263       96.03617
H        119.79668       47.44332       95.97997
Ca       124.13313       49.67584      102.03236
O        125.28563       46.51391      100.85610
H        124.40887       46.30827      101.26703
H        125.08920       46.63346       99.89426
O        122.98664       52.00794      100.96432
H        122.95351       52.96334      100.71221
H        122.23434       51.89181      101.59761
O        127.39167       47.44568      102.57832
H        127.80307       46.82049      103.22458
H        127.95977       48.25436      102.62140

Ca 1.0



