%chk=holoCaM-CaMKII.loop1.water2.frame234.chk
%nprocshared=20
%mem=10GB
%nosave
#b3lyp/svp scf=(tight,noincore,xqc) Test 
#IOP(5/87=12) Density=Current Pop=(MK,readradii) iop(6/33=2) iop(6/42=6)

holoCaM-CaMKII.loop1.water2.frame234 

   0  1 
C         82.82721       16.81972       44.24398
C         83.03428       15.64154       45.14601
O         84.10247       15.05667       45.09916
H         81.82613       17.27541       44.39452
H         83.60026       17.58774       44.45669
H         82.91422       16.49204       43.18748
N         82.05959       15.26134       46.01784
C         82.17610       14.15193       46.95886
C         82.15152       12.79334       46.23090
O         81.10017       12.17248       46.15999
C         81.04378       14.29328       48.01986
C         81.24056       13.37573       49.18312
O         82.22728       12.47137       49.12314
O         80.53843       13.47016       50.17594
H         81.20350       15.83665       46.05232
H         83.13000       14.26515       47.52577
H         80.03696       14.15914       47.57021
H         81.09455       15.31952       48.43890
N         83.27839       12.28724       45.64212
C         83.30866       11.06597       44.82728
C         83.04464        9.76446       45.58761
O         82.87189        8.75262       44.92150
C         84.69536       10.90544       44.15019
C         85.06633       11.97919       43.11182
C         84.16656       11.91286       41.86493
C         84.69991       12.74796       40.68879
N         84.74575       14.17954       40.98356
H         84.14789       12.82405       45.72971
H         82.52164       11.15630       44.04931
H         84.75392        9.92535       43.62710
H         85.47111       10.89712       44.94900
H         86.10882       11.75982       42.79302
H         85.05292       12.99309       43.56160
H         83.13174       12.22844       42.11479
H         84.13425       10.85907       41.51067
H         84.03134       12.58065       39.81514
H         85.71646       12.39059       40.40921
H         83.79348       14.52427       41.24288
H         85.42352       14.37678       41.75344
H         85.06780       14.68611       40.12707
N         83.06331        9.68060       46.94625
C         82.87230        8.41722       47.68003
C         81.65152        8.45894       48.59883
O         81.37041        7.45023       49.23141
C         84.17718        7.98002       48.41910
C         84.72408        8.97567       49.40371
O         84.08094       10.13651       49.54128
O         85.75942        8.75681       50.01125
H         83.24500       10.54582       47.46611
H         82.66038        7.59049       46.96825
H         84.96271        7.80480       47.65232
H         83.99479        7.01794       48.94513
N         80.83881        9.55289       48.67639
C         79.59744        9.58006       49.43100
C         79.79906        9.40611       50.91484
O         79.21293        8.49786       51.48670
H         81.05650       10.39455       48.12964
H         78.91413        8.79331       49.04105
H         79.10246       10.56308       49.27114
N         80.58799       10.27118       51.60991
C         80.74384       10.23470       53.06137
C         80.26767       11.54377       53.69743
O         80.50218       11.74354       54.88103
C         82.19894        9.86017       53.42796
C         83.24809       10.87973       53.10600
O         84.54323       10.58857       53.32790
O         82.94537       11.97979       52.68688
H         81.08610       11.00567       51.08673
H         80.12617        9.42213       53.50221
H         82.44867        8.91479       52.89836
H         82.26397        9.66670       54.51971
N         79.52641       12.44923       52.98761
C         78.96740       13.66063       53.56589
C         79.92543       14.83258       53.63555
O         79.48916       15.87793       54.09936
H         79.23184       12.22343       52.02775
H         78.53056       13.43447       54.56257
H         78.13287       14.00195       52.91496
N         81.20958       14.77767       53.17386
C         82.08454       15.95076       53.13920
C         82.96124       15.98779       51.89313
O         83.04404       15.01877       51.15020
C         82.95885       16.05809       54.41860
C         82.14947       16.38696       55.67823
O         83.72821       14.89740       54.60921
H         81.55080       13.90050       52.76696
H         81.45362       16.86415       53.05500
H         83.66096       16.91094       54.29808
H         83.11228       14.16411       54.87260
H         81.42747       15.58117       55.91933
H         82.83888       16.51226       56.54023
H         81.59985       17.34217       55.53295
N         83.61928       17.14278       51.59796
C         84.48160       17.35632       50.44269
C         85.83750       17.79702       50.96064
O         85.89671       18.70982       51.77538
C         83.84207       18.41462       49.49698
C         82.48234       17.87615       48.97779
C         84.78281       18.72926       48.31274
C         81.67348       18.87916       48.15703
H         83.47518       17.95203       52.22340
H         84.59945       16.42489       49.84762
H         83.67077       19.35061       50.07376
H         81.84056       17.59292       49.83861
H         82.66367       16.96896       48.36341
H         85.75370       19.12678       48.67229
H         84.97502       17.81502       47.70979
H         84.35422       19.50930       47.65312
H         80.70900       18.41163       47.86411
H         81.45788       19.78243       48.76575
H         82.19882       19.17064       47.22665
N         86.97636       17.20968       50.50499
C         88.30604       17.54008       51.00093
C         89.05103       18.36860       49.97607
O         88.53581       18.59158       48.89357
C         89.07900       16.23398       51.32852
C         88.33866       15.38265       52.36283
O         89.24701       15.48151       50.15419
H         86.90586       16.52222       49.74428
H         88.23191       18.16276       51.91949
H         90.07767       16.50646       51.73954
H         89.96711       14.82043       50.32749
H         88.20136       15.94776       53.30714
H         87.34753       15.08098       51.96782
H         88.91932       14.45989       52.57781
N         90.27429       18.88501       50.26393
C         91.07284       19.63190       49.29369
C         91.43206       18.73373       48.12215
O         91.24842       19.13379       46.98153
C         92.34905       20.21317       49.95096
C         91.98469       21.29482       50.98036
O         93.09805       19.19211       50.55970
H         90.65703       18.72157       51.20781
H         90.49359       20.50142       48.90645
H         92.95656       20.69589       49.15019
H         93.96651       19.59119       50.82805
H         92.90704       21.73390       51.41469
H         91.41527       22.11205       50.48675
H         91.36894       20.87984       51.80483
N         91.90193       17.47600       48.34962
C         92.26073       16.52226       47.30338
C         91.11955       16.33816       46.31163
O         91.34804       16.49529       45.12025
C         92.68156       15.19519       47.97559
C         93.25497       14.14893       47.01023
C         93.78803       12.94571       47.80605
C         94.41633       11.88509       46.89455
N         94.94498       10.77104       47.68360
H         91.98548       17.17199       49.33224
H         93.14557       16.91549       46.75421
H         91.82363       14.76027       48.53456
H         93.48265       15.44131       48.70846
H         94.09621       14.60130       46.44085
H         92.47044       13.81953       46.29493
H         92.95825       12.48643       48.38686
H         94.56549       13.30026       48.51931
H         95.24580       12.34166       46.30971
H         93.65032       11.50402       46.18401
H         95.36512       10.06182       47.04056
H         95.68693       11.11261       48.33767
H         94.17676       10.31908       48.23100
N         89.85506       16.05775       46.73625
C         88.71469       15.91756       45.82935
C         88.52016       17.18392       45.00435
O         88.61017       17.10885       43.78645
C         87.43022       15.55013       46.61511
C         87.55015       14.13814       47.22432
C         86.33231       13.72416       48.00056
O         85.96451       14.39590       49.10398
O         85.70140       12.73537       47.66767
H         89.70152       15.96541       47.74899
H         88.91932       15.08568       45.11846
H         86.56349       15.55155       45.92029
H         87.23918       16.30938       47.40435
H         88.42071       14.07864       47.90758
H         87.70918       13.41444       46.39483
N         88.27791       18.38572       45.59143
C         88.14792       19.61053       44.83077
H         89.08351       19.80400       44.26276
H         87.29347       19.53659       44.12600
H         87.97297       20.46719       45.51696
H         88.19854       18.44053       46.60935
Ca        84.07904       12.19124       50.35232
O         85.71270       13.18356       52.62506
H         85.22823       14.03838       52.73601
H         86.20984       13.06216       53.47208
O         87.42308       11.68560       50.66391
H         87.85651       11.79399       51.54729
H         86.70194       11.02813       50.82613

Ca 1.0



