%chk=holoCaM-CaMKII.loop4.water2.frame90.chk
%nprocshared=20
%mem=10GB
%nosave
#b3lyp/svp scf=(tight,noincore,xqc) Test 
#IOP(5/87=12) Density=Current Pop=(MK,readradii) iop(6/33=2) iop(6/42=6)

holoCaM-CaMKII.loop4.water2.frame90 

   -3  1 
C          8.61835       44.62587       48.29125
C          9.32450       43.83402       47.23639
O         10.46339       44.14957       46.92548
H          7.59446       44.23588       48.47125
H          9.19292       44.56539       49.23903
H          8.54611       45.68442       47.96791
N          8.71755       42.76619       46.65298
C          9.38065       41.94999       45.65144
C          9.62218       42.74040       44.37376
O          8.69824       43.37169       43.87916
C          8.55918       40.69155       45.35075
C          9.34986       39.74978       44.50011
O         10.69546       39.76245       44.60169
O          8.78872       38.81696       43.95810
H          7.76952       42.50110       46.96408
H         10.34548       41.60650       46.08871
H          7.57972       40.93634       44.88680
H          8.36287       40.15208       46.30546
N         10.84526       42.71139       43.76998
C         11.21139       43.53687       42.62370
C         11.28082       42.74968       41.31351
O         11.18797       43.40631       40.28459
C         12.56965       44.25697       42.93390
C         12.53161       45.07659       44.25044
C         13.10577       45.11758       41.77615
C         11.56432       46.26159       44.24132
H         11.56454       42.10185       44.17232
H         10.41575       44.29511       42.45780
H         13.33184       43.46600       43.09028
H         13.55283       45.46204       44.46421
H         12.26305       44.40766       45.09195
H         14.07551       45.57675       42.06629
H         13.31467       44.49315       40.88386
H         12.39052       45.91644       41.49718
H         11.84065       46.99262       43.45452
H         10.52035       45.92361       44.08494
H         11.61576       46.78070       45.22133
N         11.46806       41.39184       41.23494
C         11.60322       40.70800       39.93696
C         10.57540       39.60904       39.67498
O         10.34287       39.32767       38.50669
C         13.04870       40.23025       39.69680
C         13.55292       39.17910       40.64869
O         12.77643       38.68442       41.63000
O         14.69367       38.76390       40.52500
H         11.58314       40.85354       42.10373
H         11.42097       41.44440       39.12362
H         13.71999       41.11440       39.76908
H         13.12730       39.82926       38.66214
N          9.91585       38.95015       40.67149
C          8.80724       38.03507       40.41791
C          9.06610       36.59180       40.81031
O          8.78253       35.71391       40.00775
H         10.15448       39.14700       41.65187
H          8.49329       38.05167       39.35062
H          7.93889       38.40460       41.00321
N          9.55374       36.26066       42.03635
C          9.62745       34.88932       42.54753
C          8.91804       34.78253       43.90575
O          9.05499       33.75951       44.56156
C         11.09080       34.37102       42.55081
C         12.04396       35.30636       43.20840
O         12.91310       35.85811       42.55236
O         11.84937       35.66803       44.47568
H          9.86809       37.01744       42.65868
H          9.09727       34.17724       41.87833
H         11.41077       34.26104       41.49139
H         11.14707       33.36840       43.02545
N          8.06145       35.75734       44.34473
C          7.28401       35.66365       45.57293
C          8.07527       35.86516       46.84961
O          7.45756       35.78685       47.90447
H          7.85783       36.56435       43.74278
H          6.75377       34.68646       45.59546
H          6.50844       36.46091       45.56317
N          9.41397       36.13093       46.86276
C         10.17974       36.32074       48.09361
C         10.92019       37.64621       48.09954
O         10.88592       38.36740       47.11140
C         11.17593       35.15891       48.25932
C         10.43955       33.82462       48.46084
C         11.36981       32.66530       48.71501
N         10.85509       31.44227       48.97553
O         12.58292       32.81906       48.70017
H          9.92477       36.18103       45.97175
H          9.50678       36.33130       48.97987
H         11.80289       35.33602       49.15886
H         11.84324       35.10303       47.37029
H          9.81775       33.59233       47.56949
H          9.77188       33.92330       49.34437
H          9.83481       31.29772       49.00187
H         11.47577       30.64115       49.16218
N         11.59133       38.04636       49.21748
C         12.34644       39.28931       49.31561
C         13.76287       38.98817       49.78454
O         13.94741       38.57840       50.92404
C         11.60940       40.26673       50.27839
C         12.43685       41.51345       50.63099
C         10.27917       40.71832       49.65286
H         11.54152       37.45249       50.06125
H         12.41153       39.78548       48.32128
H         11.39801       39.73595       51.23354
H         12.69898       42.09205       49.72353
H         11.86304       42.16936       51.31966
H         13.36139       41.22709       51.16906
H          9.62655       39.85000       49.42884
H          9.73173       41.38836       50.34880
H         10.46850       41.27350       48.70769
N         14.81991       39.19501       48.95004
C         16.21738       39.08993       49.36050
C         16.55277       40.25636       50.29111
O         15.74506       41.16254       50.42844
C         17.10184       39.09894       48.07896
C         18.59207       38.99021       48.28463
N         19.13849       37.92334       48.91060
O         19.32083       39.86892       47.84960
H         14.62173       39.46331       47.98001
H         16.36262       38.12080       49.88622
H         16.89285       40.02872       47.50655
H         16.80000       38.23966       47.44291
H         18.54748       37.16284       49.27353
H         20.16063       37.86158       49.03305
N         17.73797       40.30835       50.95785
C         18.14864       41.44657       51.78093
C         18.22054       42.70885       50.94150
O         17.76490       43.75015       51.39092
C         19.53433       41.17794       52.39738
C         20.05394       42.39105       53.13628
C         19.40677       42.88147       54.28445
C         21.18429       43.06382       52.64533
C         19.88955       44.02687       54.92840
C         21.65975       44.20835       53.28530
C         21.01481       44.69443       54.43042
O         21.46543       45.80093       55.05474
H         18.38583       39.51440       50.86190
H         17.42385       41.60033       52.61197
H         20.23226       40.91964       51.57084
H         19.48704       40.30527       53.08392
H         18.52951       42.38299       54.67816
H         21.68925       42.71174       51.75439
H         19.38603       44.39978       55.81174
H         22.52664       44.71807       52.88510
H         22.23781       46.29014       54.73612
N         18.81177       42.68475       49.71917
C         18.88530       43.84079       48.83678
C         17.48544       44.32730       48.48688
O         17.23017       45.51458       48.63527
C         19.71297       43.51415       47.57254
C         21.17153       43.16917       47.94744
C         22.02968       42.94485       46.73831
O         23.10926       43.72271       46.52745
O         21.77327       42.04288       45.95724
H         19.20145       41.78984       49.39792
H         19.42313       44.66845       49.35250
H         19.72865       44.41495       46.91904
H         19.24937       42.67716       47.00496
H         21.21440       42.25336       48.57249
H         21.60337       44.00746       48.53712
N         16.50996       43.46427       48.06685
C         15.14418       43.91055       47.76196
C         14.44557       44.51543       48.98397
O         13.44492       45.19747       48.81200
C         14.28049       42.76931       47.16426
C         14.90217       42.20234       45.87306
C         14.06301       41.13624       45.22406
O         13.77386       41.22442       44.04385
O         13.68284       40.04422       45.90661
H         16.75314       42.46807       47.97575
H         15.22690       44.71217       46.99474
H         13.26634       43.16480       46.93642
H         14.17439       41.95304       47.91106
H         15.88306       41.74661       46.10228
H         15.06231       43.02945       45.14766
N         14.92180       44.31949       50.24409
C         14.37047       44.95503       51.42069
H         13.30478       44.68015       51.55148
H         14.93771       44.62906       52.32151
H         14.47335       46.05801       51.33447
H         15.71139       43.69021       50.38147
Ca        11.85286       37.87388       44.53726
O         15.51477       38.28674       43.96957
H         14.90870       38.09810       43.21078
H         16.42397       38.16557       43.59763
O         14.03929       36.74115       46.45355
H         14.39636       35.84729       46.22218
H         14.82863       37.33649       46.42655

Ca 1.0



