%chk=holoCaM.loop3.water2.frame169.chk
%nprocshared=20
%mem=10GB
%nosave
#b3lyp/svp scf=(tight,noincore,xqc) Test 
#IOP(5/87=12) Density=Current Pop=(MK,readradii) iop(6/33=2) iop(6/42=6)

holoCaM.loop3.water2.frame169 

   0  1 
C         27.27086       93.52957       -6.94702
C         27.92760       92.70169       -5.88588
O         29.11197       92.42403       -6.00323
H         26.20397       93.72230       -6.70673
H         27.79555       94.50511       -7.02432
H         27.32952       93.00067       -7.92015
N         27.22489       92.29430       -4.79440
C         27.83891       91.54496       -3.71019
C         28.22888       90.15719       -4.18025
O         27.37342       89.43996       -4.68163
C         26.87136       91.44048       -2.52002
C         27.56895       91.11072       -1.23228
O         28.91274       90.99979       -1.15113
O         26.90768       91.05710       -0.21172
H         26.23582       92.57686       -4.70933
H         28.72190       92.12895       -3.36737
H         26.05495       90.71681       -2.73480
H         26.40274       92.43051       -2.34550
N         29.50044       89.70484       -4.02087
C         29.94727       88.38756       -4.45633
C         30.20361       87.52611       -3.23808
O         29.57997       86.47766       -3.13373
C         31.17316       88.53825       -5.37795
C         30.76267       89.22357       -6.69553
C         31.96063       89.50599       -7.60978
C         31.54341       90.05493       -8.98968
N         30.78685       91.30692       -8.90491
H         30.18399       90.31517       -3.54718
H         29.15750       87.86450       -5.04363
H         31.58839       87.53592       -5.62284
H         31.95942       89.12788       -4.85738
H         30.26569       90.18528       -6.46598
H         30.03969       88.56432       -7.22533
H         32.52166       88.56200       -7.78149
H         32.63928       90.23017       -7.10807
H         30.93398       89.29405       -9.52610
H         32.46722       90.23057       -9.58424
H         30.61745       91.66533       -9.87269
H         29.85508       91.14552       -8.46046
H         31.32452       92.02433       -8.36721
N         31.05447       87.91369       -2.24343
C         31.22979       87.11716       -1.02606
C         29.93307       86.95070       -0.21749
O         29.91544       86.11033        0.67101
C         32.37187       87.65776       -0.13698
C         32.11603       89.03100        0.42289
O         32.05127       89.21128        1.75580
O         32.00279       89.99303       -0.31877
H         31.58892       88.78376       -2.37076
H         31.54147       86.10091       -1.35749
H         33.31558       87.68198       -0.72379
H         32.52204       86.95172        0.70897
N         28.80472       87.67388       -0.48747
C         27.50887       87.40868        0.12024
C         27.46789       87.57615        1.62218
O         27.15594       86.60615        2.29908
H         28.82882       88.40436       -1.21018
H         27.20809       86.36989       -0.14265
H         26.75212       88.09260       -0.32138
N         27.72280       88.78117        2.21275
C         27.60480       89.00346        3.65549
C         26.57421       90.08087        4.02030
O         26.31253       90.24131        5.20404
C         28.99684       89.25779        4.28987
C         29.71897       90.59920        4.00609
N         29.88670       91.36148        5.24055
O         29.02633       91.39671        3.10749
H         27.99988       89.55785        1.60832
H         27.23685       88.06652        4.12746
H         29.67565       88.43992        3.96571
H         28.89428       89.13767        5.39106
H         30.53660       90.84733        5.87551
H         30.32223       92.28476        5.01355
N         25.94782       90.84966        3.07540
C         24.91299       91.83626        3.36883
C         25.33228       93.26851        3.06627
O         24.49224       94.14908        3.18466
H         26.18825       90.73504        2.08626
H         24.60686       91.80209        4.43621
H         24.02064       91.57889        2.75820
N         26.61930       93.59010        2.75136
C         27.11912       94.95032        2.58608
C         27.97047       95.07023        1.34042
O         28.87996       94.26691        1.17627
C         28.05063       95.31797        3.75688
C         27.35869       95.35847        5.09001
C         27.25171       94.19839        5.87234
C         26.85480       96.57305        5.58247
C         26.65468       94.25580        7.13513
C         26.25291       96.62727        6.84106
C         26.15590       95.46867        7.62500
O         25.59277       95.51103        8.84893
H         27.31056       92.84170        2.71002
H         26.29420       95.69756        2.57346
H         28.46531       96.33229        3.55540
H         28.93007       94.63803        3.81724
H         27.64472       93.25589        5.51153
H         26.93090       97.47881        4.99283
H         26.58816       93.35848        7.73682
H         25.87061       97.57157        7.20780
H         25.24900       96.33299        9.22733
N         27.82409       96.12789        0.49162
C         28.79245       96.41713       -0.56686
C         29.47391       97.75359       -0.31339
O         29.03618       98.51217        0.54238
C         28.14659       96.35744       -1.97720
C         27.02668       97.41667       -2.14858
C         27.64153       94.93184       -2.24009
C         26.44486       97.46496       -3.56152
H         27.05715       96.79697        0.65813
H         29.60808       95.66274       -0.54464
H         28.94153       96.57014       -2.72501
H         27.44787       98.42296       -1.93684
H         26.19842       97.22796       -1.43357
H         26.82340       94.67073       -1.53608
H         27.27710       94.81675       -3.27974
H         28.47259       94.20765       -2.10571
H         27.24706       97.66794       -4.30224
H         25.93183       96.51675       -3.81958
H         25.69210       98.27910       -3.61926
N         30.59636       98.07862       -1.01230
C         31.32640       99.33085       -0.85678
C         31.49677      100.01396       -2.20617
O         31.06194       99.47813       -3.21741
C         32.69511       99.03555       -0.21336
O         33.44782       98.17749       -1.02535
H         30.97872       97.38305       -1.66790
H         30.78174      100.02486       -0.17990
H         32.52579       98.55493        0.77602
H         33.25396       99.98365       -0.05294
H         34.31954       98.05512       -0.56704
N         32.15864      101.20186       -2.29453
C         32.47220      101.85389       -3.56283
C         33.33521      100.94906       -4.42198
O         33.08708      100.84893       -5.61439
C         33.20873      103.17372       -3.31692
H         32.48969      101.64294       -1.42251
H         31.53213      102.10200       -4.10566
H         33.42407      103.67397       -4.28611
H         32.57126      103.85285       -2.71138
H         34.16556      103.00141       -2.77987
N         34.35021      100.23040       -3.86150
C         35.18204       99.29140       -4.60524
C         34.34914       98.19210       -5.24893
O         34.44724       98.02308       -6.45672
C         36.23591       98.67087       -3.67953
H         34.52510      100.34411       -2.85082
H         35.72994       99.84660       -5.39978
H         36.87079       99.47095       -3.24167
H         35.75780       98.10588       -2.85154
H         36.89205       97.98164       -4.25292
N         33.50398       97.40647       -4.51312
C         32.71864       96.32076       -5.11063
C         31.72291       96.81819       -6.15565
O         31.17715       95.98922       -6.87107
C         31.92289       95.52642       -4.04882
C         32.80205       94.84552       -2.98977
C         31.95245       94.10656       -1.99332
O         31.22207       93.19774       -2.35615
O         31.99822       94.44201       -0.69027
H         33.43590       97.58221       -3.50200
H         33.43240       95.62957       -5.61223
H         31.33347       94.73246       -4.56026
H         31.20728       96.21426       -3.55603
H         33.40716       95.59889       -2.44521
H         33.49256       94.12698       -3.48064
N         31.41317       98.13912       -6.28564
C         30.49072       98.66063       -7.27180
H         29.65300       99.17315       -6.75452
H         31.02183       99.39859       -7.90948
H         30.07407       97.86724       -7.92583
H         31.82972       98.82197       -5.64773
Ca        29.68852       91.14832        0.95285
O         31.46814       93.71209        2.50659
H         32.36774       93.61402        2.90752
H         31.47058       94.62028        2.11181
O         33.65679       92.28154        0.68501
H         34.28169       93.03172        0.84875
H         34.22550       91.47185        0.71603

Ca 1.0



