%chk=holoCaM.loop1.water2.frame10.chk
%nprocshared=20
%mem=10GB
%nosave
#b3lyp/svp scf=(tight,noincore,xqc) Test 
#IOP(5/87=12) Density=Current Pop=(MK,readradii) iop(6/33=2) iop(6/42=6)

holoCaM.loop1.water2.frame10 

   0  1 
C        101.02091       26.71304       27.73326
C        102.33971       26.50075       27.05977
O        103.02171       27.46975       26.75531
H        100.21044       26.26828       27.12093
H        101.04009       26.22389       28.73082
H        100.82362       27.79691       27.87337
N        102.78605       25.23693       26.83021
C        104.10341       24.97661       26.27926
C        104.23336       25.46007       24.83923
O        103.52185       24.99224       23.96156
C        104.46502       23.49441       26.41180
C        105.85002       23.27474       25.89859
O        106.85412       24.09350       26.27346
O        106.05041       22.40895       25.07223
H        102.19748       24.44291       27.12909
H        104.83533       25.51628       26.92272
H        103.74318       22.84321       25.86800
H        104.44178       23.22169       27.48878
N        105.16803       26.40544       24.55021
C        105.41494       26.96801       23.22839
C        105.94954       25.92268       22.24589
O        105.36645       25.74423       21.18635
C        106.45054       28.11879       23.37354
C        106.68459       28.93613       22.10085
C        107.82958       29.94084       22.32902
C        108.05368       30.89426       21.14559
N        108.37928       30.18690       19.90643
H        105.71701       26.77535       25.33935
H        104.46593       27.41003       22.85138
H        107.42289       27.69996       23.69193
H        106.11029       28.82087       24.16755
H        105.74596       29.47156       21.84187
H        106.96297       28.25576       21.27040
H        108.77084       29.38180       22.53277
H        107.60329       30.56487       23.22189
H        108.89616       31.57330       21.40739
H        107.14619       31.51812       20.99163
H        108.60514       30.88993       19.16650
H        109.20736       29.56437       20.04881
H        107.56021       29.62739       19.57848
N        107.12589       25.27980       22.50366
C        107.88346       24.52281       21.50013
C        107.36357       23.12083       21.21643
O        107.92619       22.46216       20.35131
C        109.34104       24.37070       21.98097
C        109.97753       25.69621       22.28696
O        110.12831       26.52757       21.40714
O        110.36979       25.97662       23.54314
H        107.58010       25.47850       23.40552
H        107.89452       25.10973       20.55506
H        109.96011       23.84431       21.22317
H        109.32963       23.75599       22.89852
N        106.35755       22.56177       21.93459
C        105.95255       21.17506       21.77752
C        107.06622       20.20254       22.13424
O        107.29346       19.25842       21.39171
H        105.87543       23.11824       22.65333
H        105.57104       20.98456       20.75003
H        105.11806       20.98372       22.48666
N        107.75926       20.35280       23.29866
C        108.68464       19.37306       23.85881
C        108.13276       18.85070       25.20088
O        108.80916       18.06285       25.84668
C        110.10838       19.98288       23.98325
C        110.14962       21.13175       24.93794
O        110.43717       22.37489       24.53310
O        109.84649       20.95838       26.10070
H        107.58720       21.19349       23.85810
H        108.78145       18.49676       23.18187
H        110.43919       20.32637       22.97909
H        110.82350       19.20936       24.33667
N        106.88402       19.20395       25.64966
C        106.24287       18.64003       26.82820
C        106.59379       19.28534       28.15891
O        106.01622       18.84735       29.14440
H        106.27585       19.78578       25.05919
H        106.41505       17.54197       26.85797
H        105.14564       18.78524       26.71457
N        107.50013       20.30008       28.29907
C        107.82229       20.90740       29.59914
C        107.76171       22.43710       29.54745
O        107.60420       22.98978       28.47354
C        109.19914       20.40895       30.09975
C        109.23438       18.87898       30.26134
O        110.23735       20.83820       29.25912
H        107.99907       20.62949       27.46868
H        107.06973       20.58761       30.35292
H        109.38441       20.83899       31.10679
H        110.22703       20.27426       28.44443
H        109.08211       18.37111       29.28419
H        110.22080       18.56622       30.66266
H        108.44063       18.54542       30.96218
N        107.82978       23.18339       30.69246
C        107.67856       24.64532       30.74722
C        108.88453       25.27716       31.45440
O        109.25261       24.83423       32.53329
C        106.32177       24.99445       31.43326
C        105.15667       24.48244       30.53315
C        106.18782       26.51502       31.66722
C        103.76138       24.64696       31.13531
H        107.91841       22.68362       31.59061
H        107.61716       25.08059       29.72636
H        106.28253       24.48932       32.42353
H        105.28467       23.39777       30.33686
H        105.18344       25.01103       29.55320
H        107.00606       26.89024       32.31584
H        106.21228       27.06590       30.70441
H        105.24497       26.75917       32.19519
H        103.50527       25.71177       31.30191
H        103.01064       24.23370       30.42743
H        103.69122       24.08920       32.09227
N        109.52480       26.34708       30.88953
C        110.73933       26.98883       31.40023
C        110.48690       28.45664       31.76578
O        109.34640       28.89438       31.74616
C        111.84788       26.90389       30.30700
C        112.10334       25.46753       29.84157
O        111.55821       27.74613       29.21455
H        109.14406       26.72472       30.01720
H        111.11038       26.46189       32.30633
H        112.81161       27.25035       30.73061
H        110.89989       27.29440       28.62975
H        112.39244       24.82661       30.70035
H        111.18576       25.05977       29.37588
H        112.91933       25.45433       29.08804
N        111.53429       29.28179       32.07383
C        111.42974       30.72651       32.30715
C        110.83162       31.45571       31.10685
O        109.87920       32.19742       31.29502
C        112.82012       31.33957       32.63726
C        113.33502       30.86615       34.00215
O        113.74880       31.01369       31.63286
H        112.47417       28.86558       32.11030
H        110.76760       30.91688       33.18201
H        112.70326       32.44765       32.69196
H        114.54493       31.59034       31.77003
H        112.62154       31.16753       34.79859
H        113.46479       29.76522       34.02979
H        114.31419       31.34353       34.21999
N        111.34422       31.31592       29.84975
C        110.80213       32.01364       28.67596
C        109.37205       31.59009       28.32154
O        108.81368       32.18964       27.41294
C        111.74385       31.80042       27.46129
C        113.07301       32.55911       27.66228
C        114.18127       32.18228       26.66660
C        113.84238       32.42669       25.18964
N        114.98662       32.07703       24.34409
H        112.16055       30.69860       29.72695
H        110.76620       33.10524       28.89187
H        111.27925       32.18721       26.52799
H        111.91755       30.70876       27.33517
H        113.48270       32.33733       28.66976
H        112.87138       33.65287       27.61337
H        114.43534       31.10972       26.80690
H        115.07862       32.78714       26.92518
H        113.58354       33.49694       25.03247
H        112.97143       31.80274       24.89361
H        115.80938       32.67716       24.58467
H        115.24047       31.07069       24.47798
H        114.73948       32.23117       23.34026
N        108.71075       30.59214       28.98057
C        107.34498       30.17063       28.67082
C        106.39751       30.34948       29.85947
O        105.21840       30.06627       29.69766
C        107.36318       28.68599       28.25588
C        108.31605       28.42615       27.07960
C        108.42160       26.96249       26.76480
O        108.85873       26.08945       27.68755
O        108.15511       26.55711       25.65166
H        109.19960       30.07079       29.71076
H        106.93371       30.77204       27.83112
H        106.33778       28.34848       27.98547
H        107.69755       28.09768       29.13048
H        109.33769       28.77705       27.33127
H        107.95959       28.98949       26.18914
N        106.82446       30.80131       31.07617
C        105.95937       30.97025       32.22719
H        104.90389       30.70520       32.01205
H        106.32212       30.32476       33.05546
H        105.99631       32.02848       32.56251
H        107.80934       31.03379       31.22325
Ca       108.92391       23.72837       25.47720
O        111.29323       23.10685       27.53631
H        112.28209       23.07534       27.53138
H        111.05231       23.01348       28.49007
O        112.04507       25.65610       25.98019
H        112.33066       26.25205       25.24345
H        112.70650       24.92011       25.96597

Ca 1.0



