%chk=holoCaM-CaMKII.loop2.water2.frame156.chk
%nprocshared=20
%mem=10GB
%nosave
#b3lyp/svp scf=(tight,noincore,xqc) Test 
#IOP(5/87=12) Density=Current Pop=(MK,readradii) iop(6/33=2) iop(6/42=6)

holoCaM-CaMKII.loop2.water2.frame156 

   -2  1 
C        102.72306      106.75922       32.31825
C        102.64485      108.25706       32.45766
O        101.63929      108.83766       32.07671
H        103.68405      106.36131       32.71058
H        101.89768      106.28792       32.89300
H        102.63554      106.46736       31.25120
N        103.67293      108.94708       33.02405
C        103.65891      110.39056       33.25481
C        103.61629      111.17385       31.95292
O        104.46811      110.97189       31.09861
C        104.89136      110.78868       34.07990
C        104.96462      112.26423       34.38809
O        105.95188      112.87627       34.01434
O        104.00016      112.95693       35.04759
H        104.49297      108.40739       33.34423
H        102.78012      110.64257       33.87508
H        105.80831      110.48904       33.52122
H        104.89075      110.22578       35.03108
N        102.66181      112.13149       31.77365
C        102.54423      112.96948       30.58976
C        102.74500      114.45501       30.89885
O        102.69124      115.23611       29.95916
C        101.15306      112.74799       29.98003
H        101.98105      112.28699       32.52417
H        103.30766      112.68455       29.83478
H        101.01913      111.67771       29.71421
H        100.36013      113.02973       30.70857
H        101.01996      113.35581       29.06026
N        102.95066      114.93243       32.16604
C        103.05812      116.35919       32.47901
C        104.35872      116.72083       33.20890
O        104.98200      117.69105       32.80031
C        101.75680      116.86075       33.14474
C        101.24629      116.04179       34.29583
O        101.94542      115.94133       35.43109
O        100.16386      115.48270       34.21225
H        102.95966      114.27652       32.95814
H        103.09139      116.96319       31.54492
H        100.96799      116.82675       32.35845
H        101.87102      117.92473       33.44575
N        104.85470      115.99819       34.25532
C        106.13482      116.28657       34.90638
C        106.00211      116.63133       36.38018
O        107.02024      116.88695       37.00758
H        104.32886      115.18694       34.58391
H        106.65088      117.14085       34.41862
H        106.79784      115.40001       34.80065
N        104.78747      116.70226       36.99367
C        104.58078      117.14493       38.37114
C        105.10513      116.19236       39.45639
O        104.92329      116.50748       40.62486
C        103.08088      117.45182       38.61057
C        102.14737      116.26885       38.54687
N        100.85225      116.43006       38.89411
O        102.54504      115.16806       38.19941
H        103.95650      116.52693       36.42746
H        105.10095      118.12049       38.49178
H        102.73268      118.20882       37.87302
H        102.98492      117.90310       39.62049
H        100.49628      117.34938       39.19251
H        100.21170      115.62787       38.89623
N        105.78191      115.04225       39.17448
C        106.33108      114.16664       40.20294
C        105.32734      113.22734       40.85699
O        105.75896      112.44231       41.68900
H        106.00667      114.81296       38.20034
H        106.86531      114.77379       40.96769
H        107.08725      113.50829       39.72470
N        104.00037      113.21557       40.53381
C        103.03596      112.27238       41.10328
C        102.27788      111.52945       40.02176
O        101.75689      112.16207       39.11297
C        101.97415      112.96929       41.99930
C        102.58757      113.69358       43.19475
O        101.12383      113.82989       41.28110
H        103.65632      113.89944       39.85626
H        103.54568      111.53730       41.76466
H        101.33079      112.15985       42.41558
H        101.68557      114.46725       40.77610
H        103.19586      112.98410       43.79574
H        103.22745      114.53404       42.85698
H        101.77545      114.09127       43.84032
N        102.01051      110.20177       40.17710
C        100.98371      109.51183       39.39809
C         99.67375      110.23973       39.61931
O         99.28241      110.43818       40.76136
C        100.85980      108.01995       39.83614
C        102.13477      107.25318       39.40520
C         99.59834      107.35480       39.23493
C        102.21962      105.84047       39.98223
H        102.44808      109.70317       40.96675
H        101.23045      109.53005       38.31591
H        100.75835      107.98967       40.94431
H        103.03710      107.79402       39.75826
H        102.18129      107.20485       38.29416
H         99.48973      106.30386       39.56338
H         98.68076      107.86339       39.59342
H         99.61871      107.39204       38.12476
H        103.16475      105.36592       39.64593
H        102.22038      105.88760       41.09190
H        101.38379      105.19893       39.64140
N         98.92675      110.62298       38.54963
C         97.63184      111.27333       38.68488
C         96.56621      110.19974       38.52360
O         96.91858      109.08401       38.19171
C         97.47280      112.38507       37.61606
C         98.71987      113.21556       37.38646
O         98.69226      114.42811       37.50337
O         99.81560      112.58822       36.89206
H         99.23295      110.33759       37.60945
H         97.54811      111.71912       39.70007
H         96.59353      113.01823       37.87090
H         97.27148      111.90764       36.63255
N         95.24772      110.43007       38.76954
C         94.25396      109.37070       38.57782
C         94.16477      108.96038       37.10915
O         94.33266      107.77142       36.85571
C         92.89669      109.75102       39.20726
C         91.78979      108.76915       38.87500
C         90.59370      109.24791       38.31227
C         91.92576      107.38652       39.11193
C         89.55529      108.36899       37.99626
C         90.88715      106.50822       38.77967
C         89.70233      106.99994       38.22584
H         94.95599      111.35534       39.11344
H         94.58013      108.47386       39.15294
H         92.59001      110.76812       38.90639
H         93.03723      109.78174       40.30963
H         90.45968      110.30568       38.12452
H         92.83376      106.98162       39.53908
H         88.63643      108.75182       37.57169
H         90.99892      105.44510       38.95142
H         88.89727      106.32136       37.97445
N         93.94336      109.83583       36.07939
C         93.91577      109.46254       34.66877
C         95.04535      108.52931       34.26231
O         94.79773      107.51919       33.62343
C         94.05664      110.81163       33.94596
C         93.29225      111.72849       34.86835
C         93.78569      111.27188       36.23481
H         92.92976      109.00019       34.43795
H         95.11575      111.15895       33.97361
H         93.71753      110.80771       32.88865
H         93.41091      112.81668       34.67950
H         92.21345      111.46422       34.77866
H         94.77353      111.71301       36.48452
H         93.02632      111.56502       36.97842
N         96.31943      108.82254       34.63104
C         97.48619      108.02189       34.27006
C         97.39812      106.62539       34.85412
O         97.48547      105.66438       34.10232
C         98.76300      108.73007       34.75496
C         98.90982      110.09051       34.05097
C        100.07903      110.86323       34.53475
O        100.26016      111.98316       34.09120
O        100.90185      110.36784       35.47956
H         96.45465      109.66638       35.20591
H         97.55795      107.94524       33.16184
H         99.65713      108.10910       34.52304
H         98.71224      108.87152       35.85670
H         98.02734      110.73456       34.23352
H         99.01095      109.93794       32.95554
N         97.21446      106.44206       36.18919
C         97.12217      105.14748       36.82927
H         96.12085      105.04232       37.29785
H         97.27123      104.31130       36.11568
H         97.89532      105.07727       37.62306
H         97.11618      107.26376       36.78943
Ca       101.90744      112.95863       35.99815
O        104.88560      112.67566       37.57267
H        104.69375      111.86220       38.09864
H        105.82012      112.56196       37.26533
O        103.36744      109.84238       36.98972
H        104.28002      109.56287       37.25095
H        102.99342      109.05554       36.51978

Ca 1.0



