%chk=holoCaM-CaMKII.loop1.water2.frame255.chk
%nprocshared=20
%mem=10GB
%nosave
#b3lyp/svp scf=(tight,noincore,xqc) Test 
#IOP(5/87=12) Density=Current Pop=(MK,readradii) iop(6/33=2) iop(6/42=6)

holoCaM-CaMKII.loop1.water2.frame255 

   0  1 
C         92.19857       88.42433       48.12346
C         92.10541       87.56013       46.90249
O         91.17952       87.73854       46.12425
H         92.28306       89.48805       47.81624
H         91.28582       88.29189       48.74049
H         93.08559       88.16310       48.73815
N         93.04847       86.61042       46.65216
C         93.01375       85.77765       45.46026
C         91.82349       84.83325       45.49242
O         91.76835       83.99490       46.38159
C         94.30945       84.95151       45.35048
C         94.35866       84.15975       44.07768
O         93.80585       84.68669       42.96989
O         95.24620       83.33362       43.94829
H         93.83787       86.51074       47.30968
H         92.96852       86.45456       44.58060
H         94.39413       84.25806       46.21578
H         95.19037       85.63079       45.37114
N         90.84833       84.89644       44.53942
C         89.72044       83.97169       44.48612
C         89.67854       83.16822       43.19091
O         88.80394       82.31838       43.08943
C         88.39947       84.73432       44.71518
C         88.29996       85.39333       46.10756
C         88.34586       84.36752       47.25598
C         88.14716       85.02835       48.62367
N         88.22099       84.03079       49.69258
H         90.89897       85.63326       43.82351
H         89.81522       83.19731       45.27214
H         87.54314       84.03185       44.61601
H         88.29095       85.51658       43.93197
H         87.32892       85.93246       46.15426
H         89.11210       86.13824       46.23680
H         89.32720       83.85537       47.27465
H         87.54815       83.60847       47.10252
H         87.15349       85.52735       48.65286
H         88.93556       85.79688       48.78576
H         88.06649       84.49974       50.61384
H         87.48501       83.29980       49.55672
H         89.16493       83.57921       49.69841
N         90.61010       83.30794       42.19828
C         90.67956       82.40647       41.04693
C         91.91974       81.51798       41.11194
O         92.07288       80.66765       40.24609
C         90.56960       83.17876       39.71400
C         91.69846       84.12751       39.39894
O         91.66968       84.75418       38.35223
O         92.74573       84.28626       40.22993
H         91.34285       84.02248       42.28912
H         89.81750       81.70480       41.06338
H         89.61577       83.74971       39.71803
H         90.51583       82.43812       38.88564
N         92.81981       81.61582       42.13464
C         93.94612       80.71881       42.30446
C         94.93542       80.78759       41.17031
O         95.20580       79.75807       40.56892
H         92.68801       82.31656       42.87422
H         93.56907       79.68065       42.42574
H         94.48213       80.98591       43.24029
N         95.55166       81.96078       40.85295
C         96.61173       82.06201       39.85382
C         97.93003       82.50390       40.48976
O         98.87883       82.74115       39.75449
C         96.17196       82.95212       38.66630
C         95.95113       84.40530       38.96314
O         96.15133       84.89997       40.19008
O         95.59939       85.15531       38.06751
H         95.28383       82.81191       41.36844
H         96.81155       81.06826       39.39669
H         95.22923       82.53500       38.25063
H         96.94964       82.89222       37.87386
N         98.09562       82.55734       41.84913
C         99.36993       82.88264       42.47106
C         99.73023       84.35326       42.40853
O        100.85388       84.67748       42.76457
H         97.33095       82.27125       42.47620
H        100.16325       82.26203       42.00008
H         99.33967       82.61282       43.54945
N         98.82487       85.30763       42.04306
C         99.10822       86.74596       42.08416
C         97.81211       87.54597       42.40015
O         97.08458       86.83042       43.33979
C         99.72156       87.21914       40.73879
C        101.11397       86.64686       40.45578
O         98.86035       86.93069       39.66511
H         97.85946       85.00796       41.86387
H         99.79649       86.94910       42.93566
H         99.85195       88.31945       40.78130
H         98.81079       85.94321       39.56507
H        101.50334       87.08134       39.51090
H        101.80940       86.91141       41.27978
H        101.08273       85.54488       40.33357
N         98.09694       88.87495       42.96292
C         96.89367       89.72341       43.15995
C         96.87169       90.89390       42.16584
O         97.89631       91.21462       41.57912
C         96.83912       90.16160       44.66532
C         96.71062       88.89990       45.57038
C         95.69496       91.14795       44.96575
C         96.80205       89.16913       47.07344
H         98.92979       89.35871       42.56146
H         95.97833       89.12639       42.94829
H         97.79547       90.67826       44.90240
H         97.54145       88.20089       45.34703
H         95.74788       88.38255       45.35681
H         94.71004       90.68428       44.75285
H         95.71404       91.47578       46.02371
H         95.81298       92.07695       44.37590
H         95.97026       89.80439       47.43528
H         96.73849       88.20255       47.61847
H         97.77449       89.64672       47.31642
N         95.69809       91.53266       41.87709
C         95.58359       92.63103       40.91503
C         94.94469       93.84930       41.56202
O         94.57833       93.79804       42.72410
C         94.73489       92.19282       39.68698
C         95.33090       90.98626       38.96350
O         93.40036       91.93844       40.04318
H         94.83652       91.20373       42.33506
H         96.58807       92.92759       40.54189
H         94.72261       93.01757       38.94462
H         93.37512       91.08728       40.54916
H         96.37153       91.19845       38.64021
H         95.32292       90.11778       39.64535
H         94.71756       90.73869       38.07117
N         94.75344       94.98539       40.83894
C         94.00118       96.14053       41.32654
C         92.54282       95.75638       41.56653
O         92.01145       96.06023       42.62460
C         94.08562       97.31615       40.31914
C         95.52572       97.83976       40.20325
O         93.61507       96.91712       39.05662
H         95.12645       95.01182       39.87851
H         94.43962       96.51001       42.28165
H         93.44976       98.14437       40.71077
H         93.49679       97.74240       38.51780
H         96.21299       97.05828       39.81800
H         95.55965       98.70635       39.51028
H         95.89049       98.17661       41.19723
N         91.85589       95.04749       40.62397
C         90.45671       94.62601       40.73565
C         90.19396       93.89641       42.04276
O         89.31863       94.30901       42.79109
C         90.12521       93.71982       39.52245
C         88.68809       93.17782       39.48304
C         88.50229       92.30462       38.23096
C         87.08881       91.71845       38.13739
N         86.94577       90.90502       36.92852
H         92.37572       94.76645       39.77826
H         89.80186       95.52510       40.69965
H         90.82168       92.85234       39.51988
H         90.30618       94.30566       38.59413
H         87.96939       94.02526       39.46167
H         88.49273       92.56076       40.38724
H         89.23462       91.46693       38.25548
H         88.69819       92.92008       37.32552
H         86.34412       92.54431       38.11313
H         86.88769       91.08642       39.03085
H         87.62635       90.11058       36.94450
H         85.97573       90.51758       36.88563
H         87.11240       91.49127       36.07814
N         90.92515       92.80284       42.37689
C         90.73361       92.03404       43.60352
C         90.95154       92.91952       44.81754
O         90.06114       93.01715       45.65063
C         91.69232       90.82232       43.61554
C         91.35030       89.83883       42.47697
C         92.32806       88.70729       42.39360
O         93.50949       88.92655       42.18643
O         91.89609       87.43877       42.48245
H         91.66471       92.51824       41.72327
H         89.69411       91.63630       43.64031
H         91.61103       90.28121       44.58409
H         92.73471       91.18894       43.50558
H         91.35889       90.34707       41.49350
H         90.32664       89.43617       42.63750
N         92.10153       93.62830       44.96090
C         92.33720       94.52179       46.07310
H         93.32005       95.02584       45.94899
H         91.54644       95.30174       46.10868
H         92.34426       93.95116       47.02471
H         92.82361       93.55230       44.23943
Ca        95.18327       86.26498       42.29145
O         96.14489       87.76919       39.56435
H         96.84339       88.43285       39.79281
H         95.96236       87.92444       38.60379
O         92.97734       87.90319       39.14776
H         92.22054       87.28618       38.98768
H         92.54990       88.78588       39.28291

Ca 1.0



