%chk=holoCaM.loop2.water2.frame426.chk
%nprocshared=20
%mem=10GB
%nosave
#b3lyp/svp scf=(tight,noincore,xqc) Test 
#IOP(5/87=12) Density=Current Pop=(MK,readradii) iop(6/33=2) iop(6/42=6)

holoCaM.loop2.water2.frame426 

   -2  1 
C          6.69060      109.44735       43.17112
C          7.93840      110.12019       42.68665
O          9.00894      109.81663       43.19442
H          5.79934      109.79357       42.60624
H          6.78983      108.35057       43.02394
H          6.54208      109.66312       44.24795
N          7.88332      111.02105       41.66801
C          9.08047      111.60115       41.08379
C          9.78942      112.52402       42.06040
O          9.22444      113.53956       42.44209
C          8.72001      112.32989       39.77917
C          9.92042      112.63003       38.94844
O          9.76568      112.99886       37.80345
O         11.15394      112.34268       39.38587
H          6.96684      111.22886       41.24107
H          9.73828      110.75005       40.80773
H          8.12023      113.24677       39.96327
H          8.10951      111.62906       39.16667
N         11.03172      112.21015       42.52589
C         11.74387      113.02684       43.50087
C         12.17397      114.38175       42.95144
O         12.42342      115.27130       43.75283
C         12.98378      112.27803       44.00898
H         11.45787      111.32325       42.22336
H         11.06848      113.18149       44.37138
H         12.68382      111.29837       44.44074
H         13.69616      112.09276       43.17529
H         13.49987      112.86212       44.79999
N         12.40253      114.57622       41.61838
C         12.94803      115.81472       41.06008
C         12.09840      116.40224       39.92412
O         12.47859      117.44067       39.40063
C         14.41146      115.56376       40.64530
C         14.56691      114.45468       39.64999
O         14.08276      114.55561       38.53912
O         15.24935      113.34223       39.98168
H         12.27430      113.78295       40.97917
H         12.99332      116.60405       41.84264
H         14.97749      115.28403       41.56116
H         14.86590      116.49416       40.24164
N         10.91056      115.85050       39.53784
C          9.99437      116.48483       38.59601
C         10.38761      116.49420       37.12520
O          9.60532      117.03948       36.35835
H         10.56471      115.01394       40.02382
H          9.81093      117.52974       38.93086
H          9.02102      115.94986       38.64738
N         11.52767      115.92667       36.62610
C         11.84302      115.97131       35.18872
C         10.85892      115.17328       34.32428
O         10.91456      115.29428       33.10866
C         13.29329      115.51928       34.89987
C         13.52691      114.03963       35.09378
N         13.99773      113.27158       34.08385
O         13.30284      113.52896       36.17523
H         12.19201      115.49855       37.27975
H         11.78528      117.04191       34.88926
H         13.98308      116.08853       35.55921
H         13.54398      115.78563       33.84986
H         14.20510      113.67466       33.15907
H         14.17035      112.26660       34.23297
N          9.95127      114.32584       34.88499
C          8.94687      113.57226       34.15763
C          9.09062      112.06812       34.31490
O          8.15282      111.37885       33.93889
H          9.94315      114.21717       35.89745
H          8.93675      113.81268       33.07309
H          7.95988      113.87224       34.57333
N         10.23402      111.47225       34.78088
C         10.39170      110.01603       34.85288
C         11.03334      109.58766       36.19648
O         12.38823      109.94142       36.20754
C         11.21664      109.48596       33.64649
C         10.47288      109.64193       32.31569
O         12.48276      110.09413       33.57098
H         11.04843      112.06091       35.00868
H          9.39142      109.53085       34.80789
H         11.37196      108.39385       33.78432
H         12.34950      111.03614       33.28784
H         10.27695      110.71063       32.08967
H         11.08851      109.21309       31.49715
H          9.50707      109.09499       32.35487
N         10.87500      108.14050       36.42144
C         11.53007      107.64049       37.65546
C         12.71059      106.75729       37.27910
O         12.59543      105.94581       36.37158
C         10.56077      106.91763       38.65590
C          9.83641      105.68619       38.04840
C          9.57152      107.93310       39.26139
C          8.99822      104.90992       39.06997
H          9.85103      107.94042       36.43169
H         11.94748      108.48784       38.24202
H         11.18614      106.55201       39.50026
H         10.59437      104.98002       37.65250
H          9.17048      105.98713       37.21400
H          8.97480      107.48325       40.07996
H         10.13274      108.76825       39.72024
H          8.88291      108.34605       38.49708
H          8.55362      104.01746       38.58184
H          9.63332      104.57248       39.91622
H          8.15945      105.52156       39.46007
N         13.87429      106.84607       37.98566
C         15.07772      106.05638       37.72715
C         15.24753      105.04853       38.87198
O         14.35140      104.96474       39.68992
C         16.25327      107.05582       37.59348
C         17.50975      106.55400       36.92748
O         18.57213      107.37626       36.83956
O         17.55970      105.46001       36.38923
H         13.90954      107.49436       38.78398
H         14.96803      105.49430       36.77441
H         16.48559      107.46821       38.59931
H         15.92354      107.89774       36.95313
N         16.32996      104.22766       38.99386
C         16.45392      103.19385       40.02431
C         16.31872      103.73576       41.45288
O         15.47311      103.20102       42.15824
C         17.75428      102.38108       39.80411
C         17.96491      101.27258       40.80924
C         17.02754      100.23366       40.94871
C         19.12501      101.25883       41.60468
C         17.24880       99.20322       41.86858
C         19.34323      100.22515       42.51951
C         18.40617       99.19803       42.65164
H         17.08970      104.30215       38.31421
H         15.61887      102.47278       39.87455
H         18.63228      103.04898       39.80422
H         17.71422      101.92515       38.79108
H         16.12947      100.21596       40.34521
H         19.86568      102.04381       41.51346
H         16.52492       98.40527       41.97137
H         20.24154      100.21919       43.12343
H         18.57863       98.39712       43.35894
N         17.06003      104.76660       41.97551
C         16.89455      105.27939       43.33675
C         15.44895      105.58483       43.68679
O         14.96365      105.17793       44.73195
C         17.68936      106.59747       43.32366
C         18.79683      106.28512       42.35262
C         18.04905      105.54067       41.25024
H         17.34004      104.55512       44.05491
H         17.09742      107.41012       42.84341
H         18.00564      106.95610       44.32626
H         19.38253      107.16130       42.00128
H         19.48381      105.56886       42.85749
H         17.51775      106.23181       40.55986
H         18.79227      104.94190       40.70195
N         14.71548      106.31809       42.81295
C         13.34358      106.76375       43.01424
C         12.39966      105.58416       43.17987
O         11.63808      105.56365       44.13667
C         12.93439      107.64024       41.81191
C         13.80833      108.91382       41.72652
C         13.50773      109.68562       40.48536
O         14.38996      109.93203       39.67725
O         12.25620      110.09913       40.25127
H         15.18181      106.57231       41.93020
H         13.27844      107.40312       43.92334
H         11.86889      107.94646       41.90616
H         13.04315      107.04164       40.88465
H         14.89224      108.67891       41.71488
H         13.61251      109.55054       42.61408
N         12.41253      104.55076       42.29745
C         11.53802      103.40574       42.40647
H         10.48191      103.72533       42.29038
H         11.77843      102.67454       41.60364
H         11.67867      102.90805       43.38884
H         13.08717      104.55902       41.53223
Ca        12.45479      111.50066       37.80960
O         15.96956      112.63327       37.21026
H         16.31937      113.52262       36.95322
H         16.69287      112.22253       37.74704
O         15.11635      110.17557       36.03620
H         14.88298      109.70473       35.19737
H         16.10539      110.17221       36.05690

Ca 1.0



