%chk=holoCaM-CaMKII.loop1.water2.frame152.chk
%nprocshared=20
%mem=10GB
%nosave
#b3lyp/svp scf=(tight,noincore,xqc) Test 
#IOP(5/87=12) Density=Current Pop=(MK,readradii) iop(6/33=2) iop(6/42=6)

holoCaM-CaMKII.loop1.water2.frame152 

   0  1 
C          1.32025       99.02490       50.28261
C          0.56726      100.24137       49.83828
O          1.13588      101.32012       49.83615
H          2.35250       99.29066       50.59548
H          0.79438       98.56131       51.14384
H          1.37182       98.29505       49.44790
N         -0.72279      100.11750       49.41901
C         -1.57534      101.21728       48.96902
C         -2.13260      102.00148       50.15666
O         -3.31984      101.92008       50.44167
C         -2.68374      100.62629       48.06737
C         -3.65825      101.63664       47.53493
O         -4.84892      101.46893       47.73791
O         -3.26003      102.70627       46.81672
H         -1.10562       99.15967       49.37539
H         -0.98791      101.89587       48.32984
H         -3.24751       99.84909       48.63022
H         -2.20568      100.13513       47.19683
N         -1.31125      102.78695       50.90322
C         -1.73979      103.52168       52.08432
C         -2.69158      104.64460       51.70940
O         -3.79289      104.66431       52.24235
C         -0.50946      104.01980       52.87954
C          0.30973      102.80905       53.38960
C          1.52297      103.21775       54.23190
C          2.27979      102.00253       54.80987
N          2.86576      101.14827       53.77275
H         -0.32790      102.86368       50.63055
H         -2.27368      102.82574       52.77144
H         -0.85977      104.60084       53.76081
H          0.12357      104.68173       52.24843
H          0.66177      102.21085       52.52701
H         -0.35112      102.16870       54.01482
H          1.16715      103.83105       55.08796
H          2.21735      103.83467       53.62183
H          1.59582      101.39770       55.44668
H          3.09782      102.38350       55.46004
H          2.12293      100.68315       53.20458
H          3.49420      101.70930       53.15341
H          3.43079      100.39771       54.23245
N         -2.36000      105.60362       50.79007
C         -3.28176      106.68908       50.43273
C         -4.60549      106.20668       49.82085
O         -5.50831      107.02130       49.68889
C         -2.60314      107.75059       49.53602
C         -2.16957      107.26654       48.17673
O         -1.64024      108.05226       47.40765
O         -2.35512      105.98963       47.79064
H         -1.42163      105.57410       50.36216
H         -3.53955      107.20843       51.38315
H         -1.71000      108.14616       50.06775
H         -3.30945      108.59775       49.39123
N         -4.81781      104.90291       49.47777
C         -6.11631      104.37272       49.09160
C         -6.63457      104.89961       47.77418
O         -7.72626      105.44863       47.74461
H         -4.05088      104.22432       49.56003
H         -6.84512      104.57189       49.90720
H         -6.03402      103.27166       48.99572
N         -5.91631      104.71747       46.63239
C         -6.37451      105.09840       45.29768
C         -6.44665      103.90071       44.33704
O         -6.75969      104.10661       43.17250
C         -5.50040      106.24830       44.75621
C         -4.04424      105.93854       44.54414
O         -3.30447      106.82250       44.14489
O         -3.53891      104.71519       44.78045
H         -4.99363      104.28343       46.72062
H         -7.40497      105.51344       45.35139
H         -5.56873      107.09213       45.47753
H         -5.92335      106.59453       43.78850
N         -6.23938      102.61848       44.76285
C         -6.45893      101.43836       43.93611
C         -5.24701      100.95736       43.15876
O         -5.33393       99.87136       42.60600
H         -6.07732      102.44724       45.76269
H         -7.34689      101.56524       43.27873
H         -6.70543      100.60393       44.62963
N         -4.08910      101.67449       43.07450
C         -2.87179      101.15904       42.43529
C         -1.70603      101.22566       43.40946
O         -1.86388      101.76987       44.48569
C         -2.54688      101.94815       41.14286
C         -3.59172      101.70852       40.04475
O         -2.39211      103.32205       41.40111
H         -4.05583      102.61279       43.49091
H         -2.99822      100.08936       42.16071
H         -1.58556      101.57465       40.72824
H         -3.29265      103.71355       41.54867
H         -3.64485      100.62484       39.80421
H         -4.59637      102.05511       40.36483
H         -3.29854      102.25598       39.12384
N         -0.50025      100.66191       43.09698
C          0.67480      100.74493       43.96477
C          1.81203      101.33747       43.14742
O          2.24895      100.69934       42.19976
C          1.04629       99.33139       44.51365
C         -0.13436       98.74079       45.32751
C          2.32034       99.39360       45.38452
C          0.05698       97.27313       45.71695
H         -0.41114      100.14585       42.20976
H          0.46947      101.40385       44.83703
H          1.24079       98.66612       43.64315
H         -1.06198       98.77648       44.71869
H         -0.29275       99.34804       46.24307
H          3.17684       99.78855       44.80559
H          2.15857      100.04453       46.27069
H          2.62526       98.38682       45.73141
H          0.92739       97.12937       46.38641
H         -0.84480       96.91709       46.25868
H          0.18561       96.65247       44.80439
N          2.32525      102.56973       43.43621
C          3.42124      103.15200       42.65864
C          4.71726      102.40856       42.92851
O          4.75488      101.56607       43.81235
C          3.60641      104.66041       42.96850
C          2.36109      105.46621       42.59455
O          3.89510      104.84113       44.32942
H          1.90265      103.11184       44.20085
H          3.17237      103.05970       41.57773
H          4.45235      105.04168       42.35098
H          4.27685      105.75272       44.42568
H          1.49984      105.14334       43.20513
H          2.53583      106.54597       42.78473
H          2.11913      105.32990       41.51937
N          5.83396      102.66731       42.19240
C          7.10452      101.99841       42.45977
C          7.65647      102.44908       43.81392
O          8.39001      101.70307       44.44643
C          8.12260      102.28231       41.32443
C          9.34865      101.36487       41.40294
O          7.50214      102.06312       40.08149
H          5.76957      103.34427       41.41650
H          6.90513      100.90285       42.46470
H          8.44412      103.34969       41.40639
H          7.82949      102.76702       39.46120
H         10.04253      101.59474       40.56643
H          9.89821      101.49143       42.35632
H          9.03160      100.30285       41.30485
N          7.37890      103.70257       44.28076
C          7.89829      104.25195       45.52986
C          7.29070      103.53118       46.71508
O          8.02926      103.03302       47.55286
C          7.61367      105.77082       45.62486
C          8.25690      106.53253       44.44815
C          8.07621      108.04948       44.56861
C          8.55346      108.80049       43.30975
N          9.97648      108.59869       43.02817
H          6.78454      104.31061       43.70164
H          9.00621      104.14249       45.54986
H          8.04644      106.15032       46.57743
H          6.51892      105.96578       45.63760
H          7.79311      106.20992       43.49413
H          9.34066      106.29321       44.41563
H          8.61997      108.41937       45.46506
H          6.99515      108.27557       44.69661
H          8.36481      109.88611       43.46022
H          7.95442      108.47056       42.43146
H         10.55409      108.88861       43.84973
H         10.16949      107.60097       42.78545
H         10.24243      109.18321       42.20285
N          5.93600      103.41289       46.82369
C          5.26590      102.69567       47.90473
C          5.80745      101.28395       48.00647
O          6.27765      100.90872       49.07213
C          3.73523      102.67641       47.68660
C          3.11964      104.07806       47.84231
C          1.63097      104.02741       47.69055
O          1.08283      103.65312       46.52311
O          0.90604      104.33137       48.62455
H          5.36129      103.81686       46.07238
H          5.46489      103.20600       48.87434
H          3.27656      102.02187       48.45922
H          3.49446      102.25102       46.68583
H          3.52624      104.78512       47.09088
H          3.36446      104.46264       48.85647
N          5.82702      100.46226       46.92474
C          6.41565       99.14301       46.97727
H          7.48325       99.22096       47.27898
H          5.86952       98.51045       47.70753
H          6.36866       98.66733       45.97521
H          5.45012      100.79575       46.02907
Ca        -1.14250      103.40894       46.47741
O         -0.97512      105.25964       43.62704
H         -0.85187      104.40808       43.13938
H         -0.80083      105.96434       42.95335
O          0.54706      106.60983       45.74790
H          1.48003      106.30969       45.60947
H          0.63141      107.55281       46.03574

Ca 1.0



