%chk=holoCaM-CaMKII.loop4.water1.frame416.chk
%nprocshared=20
%mem=10GB
%nosave
#b3lyp/svp scf=(tight,noincore,xqc) Test 
#IOP(5/87=12) Density=Current Pop=(MK,readradii) iop(6/33=2) iop(6/42=6)

holoCaM-CaMKII.loop4.water1.frame416 

   -3  1 
C         49.98748       54.51175       50.48562
C         49.10880       54.68513       51.68842
O         48.26009       55.56179       51.69449
H         51.05089       54.63154       50.78348
H         49.84297       53.49403       50.06496
H         49.74603       55.26230       49.70412
N         49.26571       53.85827       52.75451
C         48.46487       53.92886       53.97320
C         48.67898       55.27369       54.67410
O         49.82156       55.62081       54.93802
C         48.86706       52.73962       54.88147
C         47.99672       52.53802       56.08351
O         48.26112       51.52654       56.92928
O         47.03320       53.24978       56.28544
H         49.99051       53.12598       52.68019
H         47.39292       53.79573       53.70224
H         49.92094       52.86218       55.21052
H         48.79057       51.80024       54.29031
N         47.61981       56.07276       55.01295
C         47.75132       57.40092       55.63291
C         47.30293       57.38856       57.10372
O         47.47744       58.39313       57.77760
C         46.91135       58.43615       54.79750
C         47.25077       58.41785       53.28640
C         46.96520       59.88297       55.32817
C         48.67389       58.85076       52.93724
H         46.66961       55.72034       54.82563
H         48.82011       57.70330       55.64218
H         45.84791       58.12745       54.86539
H         46.54085       59.08506       52.74897
H         47.08382       57.39965       52.89315
H         46.35580       60.54721       54.67833
H         46.51609       59.96846       56.33558
H         48.00607       60.26300       55.36224
H         49.41925       58.18135       53.41117
H         48.80692       58.79798       51.83609
H         48.85783       59.89796       53.25225
N         46.71960       56.29589       57.67086
C         46.19476       56.25391       59.03387
C         46.88052       55.16745       59.85866
O         47.50516       55.50485       60.85501
C         44.64156       56.16114       59.02886
C         43.95304       55.13288       58.14720
O         42.73689       55.07583       58.16998
O         44.64604       54.35291       57.28942
H         46.61288       55.46158       57.09843
H         46.41276       57.21095       59.56087
H         44.25810       57.14540       58.67900
H         44.30396       56.03289       60.08074
N         46.83437       53.85577       59.49955
C         47.52474       52.78481       60.20265
C         46.57823       51.67449       60.60265
O         46.55689       51.29593       61.76476
H         46.33166       53.59982       58.65064
H         48.07564       53.15553       61.09429
H         48.27243       52.35196       59.50620
N         45.77516       51.09340       59.66885
C         44.88992       49.95909       59.91977
C         45.15337       48.81880       58.93377
O         44.42855       47.83352       58.96529
C         43.42350       50.42750       59.83153
C         43.09351       51.11282       58.53833
O         42.61729       52.36799       58.55135
O         43.25415       50.54352       57.47546
H         45.78045       51.48063       58.71360
H         45.03403       49.55300       60.94465
H         43.22813       51.14039       60.66127
H         42.74569       49.55747       59.96898
N         46.16499       48.88218       58.02416
C         46.40442       47.88117       57.00742
C         45.30714       47.84849       55.96985
O         44.89663       46.76359       55.58752
H         46.81785       49.67545       58.02833
H         46.58679       46.88014       57.45576
H         47.32922       48.17314       56.46141
N         44.86965       49.01054       55.39877
C         44.05811       49.06172       54.17903
C         43.92696       50.50232       53.60800
O         45.01709       51.30317       53.97763
C         42.67001       48.35874       54.28017
C         41.61729       48.89848       55.26995
C         41.07092       50.27311       54.94445
N         39.79054       50.42499       54.53110
O         41.77281       51.26183       55.07585
H         45.24657       49.88656       55.78727
H         44.64987       48.49207       53.42611
H         42.83320       47.29724       54.54692
H         42.19934       48.33834       53.27529
H         41.99405       48.86094       56.30883
H         40.76961       48.18081       55.22425
H         39.16797       49.61324       54.41109
H         39.42007       51.36237       54.31932
N         43.83211       50.41822       52.13894
C         43.95087       51.69175       51.40624
C         42.64507       52.00518       50.68633
O         42.30810       51.32657       49.72530
C         45.15616       51.57430       50.42038
C         45.30951       52.78811       49.49849
C         46.47643       51.37614       51.18553
H         43.02607       49.83420       51.81925
H         44.16018       52.53118       52.10458
H         44.99191       50.68629       49.76982
H         44.40411       52.91910       48.87579
H         45.50592       53.70378       50.08734
H         46.16087       52.63504       48.80075
H         46.44079       50.46423       51.81592
H         47.32263       51.26042       50.47464
H         46.68328       52.25457       51.83444
N         41.85559       53.03144       51.11383
C         40.65864       53.47617       50.40670
C         41.04940       54.12826       49.09634
O         42.22879       54.23505       48.80376
C         39.89321       54.51871       51.25657
C         39.33466       53.91290       52.51428
N         39.69745       54.37941       53.72888
O         38.52436       53.00169       52.43342
H         42.12316       53.52619       51.97195
H         39.98893       52.60936       50.21085
H         39.02675       54.92576       50.69557
H         40.57013       55.37055       51.49147
H         40.37433       55.15098       53.82056
H         39.29047       53.96727       54.58055
N         40.10079       54.61651       48.25595
C         40.43637       55.35956       47.05006
C         41.13214       56.66701       47.41670
O         42.19562       56.93871       46.87722
C         39.16461       55.59752       46.21262
C         39.45044       56.23643       44.87218
C         40.33602       55.63016       43.96003
C         38.81252       57.43326       44.50917
C         40.58390       56.21637       42.71668
C         39.05386       58.01187       43.25908
C         39.94244       57.40524       42.35930
O         40.18279       57.95066       41.15014
H         39.10708       54.46476       48.48889
H         41.11741       54.73366       46.43382
H         38.43711       56.20230       46.79751
H         38.69620       54.60909       46.01087
H         40.83804       54.70304       44.20330
H         38.11879       57.91347       45.18761
H         41.27135       55.74098       42.02781
H         38.54693       58.92950       42.99001
H         39.75091       58.76601       40.85853
N         40.60551       57.50163       48.36623
C         41.22367       58.77197       48.76993
C         42.63025       58.64552       49.36278
O         43.23629       59.67708       49.62064
C         40.32592       59.52989       49.78033
C         40.20754       58.82512       51.14754
C         39.38149       59.63589       52.10287
O         38.21313       59.88389       51.85187
O         39.92679       60.08743       53.24915
H         39.71069       57.22797       48.79860
H         41.30077       59.39895       47.85427
H         39.31594       59.66748       49.33674
H         40.75969       60.54162       49.94744
H         41.21763       58.69743       51.59068
H         39.74669       57.82231       51.03479
N         43.21777       57.44072       49.60035
C         44.56580       57.28453       50.12473
C         45.47453       56.87908       48.97938
O         46.45141       57.57151       48.72828
C         44.57158       56.27206       51.29275
C         43.70834       56.75923       52.47009
C         43.78395       55.83754       53.65636
O         44.16634       56.30860       54.85647
O         43.46820       54.66672       53.55325
H         42.71152       56.58012       49.37490
H         44.96107       58.24750       50.52051
H         45.61587       56.13396       51.63952
H         44.18274       55.29074       50.94948
H         42.64979       56.82463       52.14362
H         44.04700       57.76919       52.78701
N         45.17876       55.81146       48.19093
C         45.96453       55.46083       47.02882
H         47.00271       55.21007       47.32815
H         45.51204       54.58286       46.51917
H         45.97454       56.31065       46.31205
H         44.34588       55.25072       48.39228
Ca        44.32899       52.75245       55.66829
O         41.07709       53.89161       56.37698
H         41.64849       54.52337       55.87116
H         40.42339       54.46994       56.84537

Ca 1.0



