%chk=holoCaM.loop3.water2.frame478.chk
%nprocshared=20
%mem=10GB
%nosave
#b3lyp/svp scf=(tight,noincore,xqc) Test 
#IOP(5/87=12) Density=Current Pop=(MK,readradii) iop(6/33=2) iop(6/42=6)

holoCaM.loop3.water2.frame478 

   0  1 
C         10.09345       46.05169       81.46008
C         10.31846       45.06664       82.56404
O         11.15185       44.18523       82.40590
H          9.31297       46.79233       81.73312
H         11.04015       46.59315       81.25302
H          9.76996       45.51109       80.54693
N          9.62324       45.16396       83.73092
C          9.84057       44.24524       84.83532
C          9.41003       42.84704       84.43907
O          8.24480       42.62776       84.13849
C          9.11669       44.74541       86.08955
C          9.49401       44.00125       87.33211
O         10.27925       43.06628       87.32307
O          8.97458       44.41216       88.48945
H          8.95296       45.93999       83.84773
H         10.92364       44.25425       85.06890
H          8.01495       44.70787       85.94423
H          9.41061       45.80386       86.26323
N         10.34382       41.86406       84.36257
C         10.07881       40.52804       83.85003
C          9.09106       39.75191       84.72148
O          8.39146       38.90077       84.19155
C         11.42511       39.77568       83.70773
C         11.36272       38.57381       82.75754
C         12.75044       37.91997       82.63074
C         12.83057       36.87287       81.50725
N         11.89716       35.76364       81.69876
H         11.31247       42.11373       84.59862
H          9.65353       40.66286       82.82994
H         11.80678       39.48730       84.71260
H         12.16399       40.47376       83.25112
H         11.04884       38.94719       81.75727
H         10.62212       37.83118       83.11759
H         13.03330       37.46299       83.60419
H         13.50416       38.70180       82.38661
H         13.86930       36.47390       81.47951
H         12.62959       37.36215       80.52798
H         10.91037       36.10034       81.63233
H         12.05124       35.06093       80.93987
H         12.06255       35.30738       82.62457
N          9.02803       39.95433       86.07369
C          8.16140       39.19558       86.98397
C          7.25308       40.08122       87.84076
O          6.50273       39.52919       88.63496
C          9.00629       38.27240       87.89185
C          9.99277       39.00860       88.75189
O         10.98947       39.67432       88.15261
O          9.93305       38.95042       89.96809
H          9.65677       40.65767       86.48041
H          7.49521       38.52194       86.40107
H          9.57319       37.55818       87.25569
H          8.32478       37.67334       88.53504
N          7.22385       41.44061       87.72708
C          6.29727       42.27215       88.48374
C          6.59198       42.41993       89.97027
O          5.77767       43.04928       90.63170
H          7.79975       41.90391       87.01371
H          5.27072       41.86489       88.34943
H          6.30267       43.29826       88.05774
N          7.70902       41.91650       90.58088
C          7.94070       42.07175       92.02586
C          8.14395       43.52751       92.47770
O          8.22787       43.75877       93.67555
C          9.12440       41.19516       92.50069
C         10.48492       41.69097       92.06458
N         11.44450       41.94901       92.98537
O         10.73099       41.84393       90.87864
H          8.38145       41.37649       90.01857
H          7.03597       41.67068       92.53456
H          8.97402       40.15998       92.12919
H          9.10326       41.14588       93.61126
H         11.26599       41.81756       93.99188
H         12.37786       42.27295       92.69609
N          8.26309       44.54548       91.57794
C          8.47128       45.94580       91.90916
C          9.81750       46.47074       91.42932
O         10.05586       47.65838       91.59836
H          8.20767       44.32871       90.58798
H          8.41996       46.11487       93.00627
H          7.65612       46.53440       91.43625
N         10.78016       45.64537       90.91590
C         12.16003       46.06911       90.67559
C         12.70307       45.55070       89.35348
O         12.45266       44.40518       89.00360
C         13.02395       45.48996       91.80655
C         12.63451       46.08575       93.13659
C         11.76402       45.40023       93.99800
C         13.12744       47.34449       93.51764
C         11.39283       45.96147       95.22160
C         12.76656       47.89934       94.74934
C         11.89601       47.20842       95.60543
O         11.53638       47.73121       96.79480
H         10.58606       44.63640       90.84352
H         12.27375       47.17612       90.71219
H         14.10704       45.67817       91.63362
H         12.88320       44.38978       91.82157
H         11.35738       44.44136       93.71552
H         13.79894       47.88993       92.86568
H         10.71272       45.42521       95.87111
H         13.16267       48.86530       95.03620
H         11.86798       48.58682       97.10211
N         13.59260       46.30976       88.64941
C         14.30428       45.85498       87.45782
C         15.78229       45.74745       87.80290
O         16.37031       46.73091       88.23281
C         14.06644       46.83955       86.27105
C         12.55952       46.87599       85.92077
C         14.90344       46.42720       85.03818
C         12.18306       47.88824       84.83747
H         13.83192       47.24644       89.01113
H         13.94505       44.85039       87.13842
H         14.38928       47.85754       86.58335
H         11.97446       47.13936       86.82701
H         12.25067       45.86980       85.58919
H         14.78312       47.14590       84.20408
H         15.98519       46.42779       85.27766
H         14.61462       45.41468       84.68484
H         11.08442       47.85786       84.67744
H         12.46946       48.91260       85.15523
H         12.66172       47.65203       83.86620
N         16.45480       44.58081       87.58590
C         17.88830       44.41954       87.81349
C         18.63845       44.58174       86.50433
O         18.01001       44.79634       85.48254
C         18.16006       43.03897       88.44297
O         17.76311       42.02258       87.56256
H         15.94705       43.80058       87.14551
H         18.26037       45.20477       88.50694
H         17.58955       42.96094       89.39552
H         19.24333       42.92194       88.66179
H         17.76624       41.17632       88.08013
N         19.99674       44.51020       86.45851
C         20.75353       44.61637       85.21289
C         20.38977       43.48350       84.27131
O         20.06622       43.73988       83.12036
C         22.25721       44.57536       85.49844
H         20.51037       44.36630       87.34152
H         20.54248       45.59587       84.72613
H         22.82483       44.67835       84.54823
H         22.53626       45.42051       86.16297
H         22.54544       43.62170       85.98883
N         20.39038       42.19823       84.72493
C         20.04762       41.03477       83.91155
C         18.70372       41.20364       83.23044
O         18.62076       41.01861       82.02430
C         20.02177       39.78039       84.79614
H         20.62089       42.04510       85.71942
H         20.82655       40.88645       83.13136
H         19.78406       38.88181       84.18840
H         21.01464       39.62992       85.27135
H         19.25921       39.88052       85.59967
N         17.61459       41.59021       83.94617
C         16.28902       41.78674       83.36418
C         16.34342       42.79860       82.23514
O         15.95027       42.46831       81.12514
C         15.29116       42.25160       84.44593
C         15.10404       41.17361       85.52110
C         14.13313       41.58688       86.57494
O         14.48116       41.58735       87.87387
O         12.97300       41.80437       86.27579
H         17.75484       41.77879       84.94836
H         15.91989       40.82006       82.95086
H         14.30442       42.45144       83.97083
H         15.65176       43.19234       84.91130
H         16.05899       40.91770       86.01452
H         14.71281       40.24938       85.04200
N         16.84777       44.04324       82.44727
C         16.96356       45.05827       81.42338
H         18.03497       45.32006       81.29220
H         16.55965       44.72195       80.44644
H         16.41057       45.96486       81.74576
H         17.19072       44.28340       83.38005
Ca        12.73841       40.77873       88.99916
O         14.42704       42.37430       90.84467
H         14.62487       41.63744       91.47561
H         14.98819       43.12790       91.15506
O         12.56880       39.31548       91.42366
H         11.98527       38.61894       91.81492
H         13.48115       39.08709       91.73059

Ca 1.0



