%chk=holoCaM-CaMKII.loop3.water2.frame84.chk
%nprocshared=20
%mem=10GB
%nosave
#b3lyp/svp scf=(tight,noincore,xqc) Test 
#IOP(5/87=12) Density=Current Pop=(MK,readradii) iop(6/33=2) iop(6/42=6)

holoCaM-CaMKII.loop3.water2.frame84 

   0  1 
C          3.96797       46.50030       58.72860
C          5.01342       46.48137       57.65928
O          4.70949       46.08243       56.55002
H          3.00702       46.09528       58.34319
H          4.29964       45.87504       59.58386
H          3.81024       47.54420       59.06784
N          6.28756       46.86742       57.94229
C          7.38376       46.85625       56.98263
C          8.26920       45.66663       57.29327
O          9.41275       45.80808       57.70123
C          8.08836       48.22834       56.99119
C          9.30004       48.27240       56.10031
O         10.49449       48.60698       56.62139
O          9.21525       48.00530       54.91362
H          6.50839       47.13602       58.91346
H          7.02046       46.69531       55.94491
H          8.40175       48.48664       58.02436
H          7.36321       48.99668       56.64410
N          7.75879       44.42493       57.06304
C          8.49229       43.17070       57.21820
C          9.54380       42.97753       56.11283
O         10.23626       41.97017       56.13662
C          7.49041       41.99517       57.14721
C          6.38745       42.09542       58.22592
C          5.30489       41.01212       58.08756
C          4.53779       41.02584       56.74606
N          3.87668       42.30635       56.48237
H          6.78676       44.37982       56.72352
H          8.97626       43.15323       58.22046
H          8.02147       41.02594       57.27401
H          7.03629       42.01796       56.13555
H          5.87633       43.07745       58.19912
H          6.85783       42.01222       59.22968
H          4.57200       41.15655       58.91138
H          5.77157       40.01256       58.21706
H          3.76866       40.22397       56.78273
H          5.21669       40.78020       55.90243
H          4.58130       43.06482       56.34045
H          3.31704       42.21985       55.60339
H          3.23434       42.55612       57.26848
N          9.70664       43.89559       55.11246
C         10.66895       43.79845       54.01488
C         11.78058       44.83130       54.17023
O         12.73095       44.77978       53.40048
C          9.96477       43.94236       52.62887
C          9.00151       45.11535       52.55949
O          7.96033       45.05724       53.18858
O          9.24636       46.23077       51.83848
H          9.14540       44.74811       55.14074
H         11.18684       42.81340       54.04437
H          9.38070       43.02110       52.40973
H         10.74429       44.02520       51.84068
N         11.77242       45.75256       55.17456
C         12.88384       46.63014       55.48034
C         13.21344       47.69192       54.45516
O         14.13534       48.44318       54.74357
H         10.98604       45.78953       55.83011
H         13.78683       46.00970       55.66478
H         12.65231       47.16222       56.42850
N         12.56258       47.85335       53.26016
C         12.98316       48.90877       52.33582
C         12.71909       50.31164       52.89512
O         13.21100       51.26259       52.30374
C         12.38187       48.75092       50.91037
C         10.89122       48.92151       50.81358
N         10.26630       48.91517       49.61405
O         10.23732       49.07616       51.82135
H         11.80450       47.21183       52.98834
H         14.08181       48.79331       52.20146
H         12.64673       47.75192       50.50237
H         12.84585       49.52228       50.25890
H         10.79950       48.79651       48.74142
H          9.24420       49.04658       49.55838
N         11.93509       50.52287       53.99965
C         11.65690       51.84197       54.55500
C         10.21154       52.26576       54.35799
O          9.88533       53.38444       54.72785
H         11.47965       49.72490       54.46148
H         12.28068       52.61499       54.05642
H         11.91930       51.84715       55.63417
N          9.31595       51.46753       53.70681
C          7.99893       51.89377       53.27279
C          6.87266       50.97548       53.81473
O          7.09742       49.58558       53.90889
C          7.96943       52.03137       51.72583
C          8.76139       53.23875       51.25989
C         10.16608       53.24327       51.25224
C          8.07607       54.39590       50.83799
C         10.86801       54.38155       50.83485
C          8.77785       55.53200       50.43007
C         10.17797       55.52910       50.42637
O         10.86712       56.62024       50.03437
H          9.59785       50.53403       53.41703
H          7.75352       52.90575       53.66696
H          6.92226       52.21756       51.41432
H          8.28432       51.10209       51.20570
H         10.71869       52.36740       51.56190
H          6.99329       54.42945       50.83997
H         11.95050       54.37337       50.83083
H          8.23077       56.41453       50.12076
H         10.42463       57.43298       49.74865
N          5.59104       51.30994       53.18674
C          4.39993       50.51946       53.51830
C          3.48146       50.65662       52.31869
O          3.09155       51.76518       51.97769
C          3.70205       50.99816       54.83813
C          4.57988       50.66730       56.07564
C          2.30549       50.34917       54.98511
C          4.03960       51.22603       57.39301
H          5.39088       52.33309       53.29161
H          4.65967       49.44399       53.62857
H          3.55087       52.09880       54.77676
H          5.58308       51.11466       55.95834
H          4.69674       49.56386       56.16670
H          1.65139       50.61786       54.13045
H          2.38465       49.24383       55.03910
H          1.77424       50.72082       55.88221
H          3.95773       52.33191       57.32965
H          3.05477       50.79498       57.65822
H          4.74363       50.96980       58.21278
N          3.07278       49.54347       51.65488
C          2.12813       49.55600       50.55113
C          0.74536       49.20805       51.06605
O          0.58514       48.94308       52.24869
C          2.58693       48.56854       49.45838
O          2.56709       47.24560       49.93404
H          3.37615       48.63586       52.01158
H          2.07065       50.57400       50.10829
H          3.60090       48.84535       49.08772
H          1.91554       48.62117       48.57677
H          3.49376       47.00981       50.19711
N         -0.31703       49.21389       50.21739
C         -1.67439       48.89617       50.64155
C         -1.75793       47.48789       51.18776
O         -2.30922       47.30284       52.26413
C         -2.64231       49.04142       49.46456
H         -0.15218       49.46056       49.22985
H         -2.00041       49.61975       51.42278
H         -2.61089       50.08271       49.07916
H         -2.37592       48.34443       48.64196
H         -3.67947       48.82542       49.80043
N         -1.22541       46.44403       50.49269
C         -1.32260       45.05851       50.93174
C         -0.74448       44.85399       52.32043
O         -1.48148       44.42269       53.19645
C         -0.62513       44.13112       49.92724
H         -0.74319       46.64813       49.60269
H         -2.39932       44.77688       50.95509
H         -1.08941       44.24211       48.92422
H          0.45515       44.37693       49.84024
H         -0.72663       43.07169       50.24510
N          0.56727       45.11034       52.59570
C          1.14944       44.82181       53.90817
C          0.56659       45.67921       55.02725
O          0.79642       45.35846       56.18542
C          2.68814       44.91527       53.85655
C          3.20940       46.34247       53.66767
C          4.67351       46.32263       53.32633
O          5.07150       46.82226       52.28806
O          5.55217       45.71684       54.13897
H          1.17042       45.44748       51.83083
H          0.90814       43.75809       54.12846
H          3.02535       44.28088       53.00723
H          3.13127       44.50447       54.78808
H          3.04010       46.92918       54.59645
H          2.65100       46.82641       52.84886
N         -0.18749       46.78418       54.76580
C         -0.79646       47.57728       55.81066
H         -1.52981       46.95823       56.37034
H         -0.02197       47.96309       56.50590
H         -1.33619       48.43989       55.36288
H         -0.33482       47.08714       53.79617
Ca         7.89044       48.02521       52.38202
O          6.82126       45.42612       50.12399
H          6.19092       44.75028       50.47895
H          7.41437       44.91956       49.51429
O          6.27160       48.58480       49.99541
H          6.23340       49.51728       49.66607
H          6.61348       48.06184       49.22746

Ca 1.0



