%chk=holoCaM-CaMKII.loop3.water1.frame282.chk
%nprocshared=20
%mem=10GB
%nosave
#b3lyp/svp scf=(tight,noincore,xqc) Test 
#IOP(5/87=12) Density=Current Pop=(MK,readradii) iop(6/33=2) iop(6/42=6)

holoCaM-CaMKII.loop3.water1.frame282 

   0  1 
C         45.11545       20.32164       79.40451
C         45.69666       19.21214       80.22584
O         46.85120       19.29673       80.61963
H         44.23143       20.74468       79.92513
H         45.86265       21.12710       79.24373
H         44.80080       19.92324       78.41648
N         44.93932       18.11718       80.50396
C         45.42167       16.97365       81.26057
C         45.46059       15.77967       80.32578
O         44.46317       15.47006       79.68891
C         44.52022       16.73915       82.48693
C         45.00353       15.63999       83.40561
O         44.29831       15.34792       84.51422
O         46.02624       15.01628       83.16893
H         43.97609       18.07880       80.13410
H         46.44461       17.16887       81.65296
H         43.49256       16.51299       82.14309
H         44.48562       17.67356       83.08629
N         46.61632       15.07803       80.18993
C         46.82027       13.97591       79.25483
C         45.75405       12.89804       79.40083
O         45.18589       12.52587       78.38270
C         48.27736       13.49095       79.40239
C         48.73945       12.41371       78.41374
C         50.27899       12.35399       78.42921
C         50.84581       11.27955       77.49841
N         52.30355       11.39586       77.41147
H         47.41208       15.36110       80.78349
H         46.73809       14.37762       78.21948
H         48.47089       13.13798       80.42800
H         48.90377       14.39608       79.23056
H         48.42198       12.68493       77.38420
H         48.28679       11.43576       78.68822
H         50.65412       12.16435       79.45712
H         50.65930       13.34515       78.09336
H         50.41706       11.39588       76.47930
H         50.56898       10.27557       77.88970
H         52.55926       12.31210       76.97411
H         52.73702       11.33234       78.36130
H         52.67801       10.62600       76.81199
N         45.35400       12.42456       80.61884
C         44.25378       11.46416       80.76860
C         43.01214       12.05320       81.44349
O         42.02977       11.33215       81.55438
C         44.73721       10.17627       81.46765
C         45.22889       10.33400       82.88326
O         45.26346       11.53233       83.49605
O         45.60517        9.34486       83.48979
H         45.81663       12.79390       81.46136
H         43.89596       11.14184       79.76604
H         45.55756        9.73661       80.86063
H         43.89764        9.44606       81.47813
N         42.94384       13.35066       81.86892
C         41.72221       13.94261       82.40750
C         41.25429       13.36373       83.72970
O         40.16768       13.73187       84.15485
H         43.75332       13.96639       81.74271
H         40.91496       13.80773       81.65388
H         41.85671       15.03249       82.55222
N         41.97985       12.44339       84.42744
C         41.45435       11.75310       85.60155
C         41.22410       12.62619       86.83522
O         40.70169       12.08945       87.80174
C         42.34386       10.53851       85.96008
C         43.73381       10.86027       86.45790
N         44.55436        9.84912       86.82046
O         44.12359       12.01499       86.54657
H         42.89180       12.14793       84.05928
H         40.46840       11.32876       85.30745
H         42.43531        9.88958       85.06126
H         41.83135        9.94869       86.74986
H         44.24169        8.86934       86.75417
H         45.49979       10.04370       87.17603
N         41.58027       13.94460       86.90349
C         41.35145       14.75485       88.09840
C         42.62438       15.29531       88.71527
O         42.52599       15.95891       89.73845
H         42.02049       14.39990       86.09198
H         40.83514       14.17118       88.88874
H         40.69530       15.61005       87.83126
N         43.84668       15.08959       88.15358
C         45.07886       15.63818       88.70319
C         46.17764       15.54857       87.62466
O         46.39793       14.18608       87.44243
C         45.47858       14.93858       90.05332
C         45.66635       13.42373       89.99795
C         44.57828       12.56378       90.23069
C         46.93004       12.85308       89.73152
C         44.74297       11.17355       90.17878
C         47.08786       11.46335       89.66259
C         45.99299       10.61871       89.88697
O         46.12758        9.27731       89.82142
H         43.90614       14.57513       87.26451
H         44.92321       16.72369       88.88934
H         44.71051       15.15619       90.82385
H         46.40882       15.39870       90.45164
H         43.60024       12.96828       90.45417
H         47.79175       13.48467       89.55329
H         43.89535       10.52446       90.35987
H         48.06026       11.04351       89.43276
H         46.96901        8.85113       89.60221
N         47.40445       16.23514       88.05879
C         48.36919       16.59012       86.99309
C         49.74266       16.45871       87.60781
O         49.98997       17.04902       88.65112
C         48.17715       18.04347       86.41139
C         46.85427       18.14849       85.60909
C         49.37747       18.43944       85.50936
C         46.57282       19.54562       85.03804
H         47.18936       17.09304       88.62070
H         48.30513       15.87917       86.14314
H         48.15394       18.77061       87.25356
H         46.00566       17.89049       86.27355
H         46.87542       17.42624       84.76414
H         49.29545       19.48192       85.14396
H         50.32857       18.42398       86.07872
H         49.46903       17.75426       84.63998
H         47.32886       19.84777       84.28454
H         45.59249       19.54316       84.51785
H         46.54313       20.29996       85.85212
N         50.71024       15.74801       86.96534
C         52.06535       15.61245       87.47553
C         53.01674       16.48586       86.68263
O         52.61082       17.11251       85.71437
C         52.48445       14.13238       87.42266
O         52.47663       13.67807       86.09484
H         50.49712       15.34232       86.04207
H         52.11719       15.96039       88.52994
H         51.76982       13.52846       88.02379
H         53.50411       14.01748       87.85220
H         52.90321       12.78246       86.09882
N         54.31884       16.58286       87.06688
C         55.31216       17.36971       86.34600
C         55.45592       16.86650       84.92635
O         55.52961       17.67641       84.01328
C         56.66399       17.29321       87.05926
H         54.61789       16.06236       87.90581
H         55.01010       18.44168       86.33446
H         56.56411       17.68884       88.09300
H         57.02744       16.24493       87.10776
H         57.41264       17.91361       86.52132
N         55.46023       15.52809       84.66960
C         55.53988       14.96722       83.32767
C         54.40016       15.45868       82.45034
O         54.66863       16.03287       81.40446
C         55.51659       13.43375       83.39796
H         55.38357       14.87927       85.46909
H         56.50770       15.26899       82.86929
H         56.37077       13.07054       84.00824
H         54.57584       13.06856       83.86414
H         55.60217       12.99936       82.37959
N         53.09933       15.25804       82.80753
C         51.97567       15.66019       81.95863
C         51.84682       17.17349       81.80801
O         51.03248       17.60055       81.00058
C         50.65308       15.12561       82.52553
C         50.60191       13.58842       82.58237
C         49.34022       13.19920       83.26233
O         48.49058       12.50679       82.72749
O         49.14603       13.67787       84.48922
H         52.91306       14.77217       83.69677
H         52.12568       15.21548       80.95016
H         49.79983       15.47105       81.89893
H         50.52471       15.55756       83.54519
H         51.43568       13.18143       83.18932
H         50.65825       13.15913       81.56393
N         52.58134       18.04394       82.55676
C         52.48870       19.48442       82.43846
H         53.48711       19.89180       82.17429
H         51.76369       19.80257       81.66080
H         52.17273       19.91322       83.41257
H         53.23063       17.68633       83.26253
Ca        47.21733       13.61083       85.49261
O         47.59111       10.66475       85.69533
H         48.56151       10.48808       85.76958
H         47.19315        9.77673       85.51711

Ca 1.0



