%chk=holoCaM-CaMKII.loop2.water2.frame292.chk
%nprocshared=20
%mem=10GB
%nosave
#b3lyp/svp scf=(tight,noincore,xqc) Test 
#IOP(5/87=12) Density=Current Pop=(MK,readradii) iop(6/33=2) iop(6/42=6)

holoCaM-CaMKII.loop2.water2.frame292 

   -2  1 
C         42.24382       22.54391       64.35805
C         43.58701       22.32004       63.72393
O         44.06377       23.17767       62.99587
H         41.53765       21.74692       64.04494
H         42.35083       22.51325       65.46442
H         41.82674       23.53284       64.07357
N         44.27496       21.18153       64.00057
C         45.62535       20.91591       63.51766
C         45.67630       20.71006       62.01177
O         44.92231       19.90493       61.48333
C         46.19958       19.69725       64.24501
C         47.63187       19.43835       63.87166
O         48.60305       20.39052       63.90540
O         47.92959       18.32140       63.48133
H         43.83540       20.50261       64.64341
H         46.27489       21.76671       63.81103
H         45.58097       18.79392       64.03322
H         46.15528       19.87175       65.33449
N         46.61424       21.37337       61.27764
C         46.79536       21.23586       59.83804
C         48.16775       20.66299       59.47348
O         48.42976       20.51183       58.28812
C         46.64496       22.62820       59.21127
H         47.25629       22.00419       61.77281
H         46.02264       20.56341       59.40786
H         47.42249       23.31621       59.61406
H         46.75235       22.58347       58.10725
H         45.64686       23.05078       59.45309
N         49.10904       20.37084       60.41988
C         50.48195       19.97910       60.11351
C         50.90551       18.70415       60.86080
O         51.35798       17.78153       60.19713
C         51.40567       21.20838       60.30071
C         51.17536       22.01503       61.54784
O         50.78187       23.16817       61.46570
O         51.40546       21.49195       62.75342
H         48.89087       20.53475       61.40807
H         50.59724       19.74042       59.03155
H         51.18486       21.89760       59.45387
H         52.47241       20.91243       60.21331
N         50.76361       18.55522       62.21161
C         51.12245       17.34378       62.95429
C         52.08112       17.60113       64.11457
O         52.40271       16.65987       64.82526
H         50.33598       19.31504       62.74277
H         51.57761       16.58005       62.28724
H         50.19262       16.90744       63.37565
N         52.59726       18.83926       64.34952
C         53.58693       19.17145       65.37660
C         53.08685       19.14037       66.83048
O         53.88031       19.45454       67.70748
C         54.20575       20.55094       65.03709
C         53.24855       21.71837       65.06419
N         53.68155       22.94039       64.68898
O         52.08327       21.57211       65.39937
H         52.35319       19.57762       63.68835
H         54.42447       18.44484       65.29203
H         54.62251       20.48369       64.00713
H         55.04794       20.76852       65.72669
H         54.65314       23.08488       64.37885
H         53.03691       23.73914       64.69570
N         51.82809       18.74808       67.18255
C         51.38413       18.64420       68.57178
C         51.11043       19.96357       69.28669
O         50.75455       19.90306       70.45484
H         51.18511       18.41507       66.45525
H         52.13083       18.05236       69.14598
H         50.42754       18.07898       68.59568
N         51.21630       21.17727       68.67272
C         50.92216       22.45647       69.32785
C         49.80178       23.20006       68.60913
O         49.32995       22.73876       67.58102
C         52.20930       23.32556       69.36085
C         53.24441       22.73480       70.31736
O         52.77952       23.43230       68.07994
H         51.51410       21.20802       67.69300
H         50.56959       22.30288       70.37112
H         51.99376       24.34329       69.75607
H         52.19803       24.03464       67.54752
H         54.14775       23.38110       70.33817
H         52.82457       22.69440       71.34607
H         53.54134       21.71218       70.00552
N         49.36114       24.40223       69.08954
C         48.40370       25.24910       68.38850
C         49.18159       26.37223       67.75400
O         49.74472       27.20642       68.45113
C         47.27131       25.76479       69.33675
C         46.26505       24.61611       69.59488
C         46.54788       27.00628       68.75893
C         45.13820       24.97183       70.56833
H         49.80109       24.78773       69.93860
H         47.92230       24.69112       67.55561
H         47.73350       26.09288       70.29490
H         46.80981       23.74108       70.00775
H         45.80187       24.31397       68.62883
H         45.79073       27.39897       69.46488
H         47.25525       27.85045       68.62565
H         46.06953       26.77894       67.78446
H         45.55663       25.26229       71.55395
H         44.50046       25.79180       70.17959
H         44.47828       24.08939       70.70089
N         49.25446       26.43042       66.39808
C         49.91597       27.50661       65.68550
C         49.03330       28.75474       65.71919
O         47.91259       28.66109       66.18935
C         50.17896       27.05699       64.23605
C         51.02606       25.80358       64.17244
O         50.48567       24.55194       64.15233
O         52.22027       25.92778       63.95369
H         48.82444       25.67247       65.84768
H         50.89807       27.70975       66.16881
H         50.73413       27.87430       63.72752
H         49.23243       26.88483       63.67967
N         49.46502       29.96433       65.25084
C         48.58661       31.13895       65.22060
C         47.46501       30.95254       64.19903
O         46.32399       31.20393       64.57260
C         49.35891       32.45366       64.96685
C         48.45516       33.66857       65.07723
C         47.86379       34.02008       66.30723
C         48.20032       34.46690       63.94827
C         47.04092       35.14861       66.40118
C         47.37170       35.58980       64.04618
C         46.79486       35.93214       65.27141
H         50.43802       30.05421       64.92626
H         48.14472       31.26291       66.23529
H         49.83855       32.43853       63.97518
H         50.17179       32.55985       65.71687
H         48.04473       33.42959       67.19639
H         48.63677       34.21730       62.98985
H         46.59463       35.41824       67.35043
H         47.17777       36.19638       63.17108
H         46.15804       36.80495       65.34515
N         47.66370       30.48817       62.91568
C         46.59770       30.26306       61.93611
C         45.49007       29.30196       62.36915
O         44.55251       29.10615       61.61147
C         47.32965       29.64035       60.73598
C         48.69651       30.26891       60.83763
C         48.95605       30.17476       62.33312
H         46.16617       31.25708       61.68594
H         47.48614       28.54996       60.92168
H         46.81457       29.75632       59.75940
H         49.48357       29.79894       60.20963
H         48.60246       31.34360       60.56075
H         49.22682       29.14163       62.62055
H         49.76815       30.87522       62.58048
N         45.55460       28.64951       63.56102
C         44.59093       27.67842       64.04861
C         43.87903       28.23712       65.26947
O         42.66636       28.09861       65.35039
C         45.34991       26.38491       64.37894
C         46.08307       25.86576       63.12974
C         46.94138       24.68771       63.42421
O         47.63693       24.22847       62.53550
O         46.98796       24.15701       64.66028
H         46.37268       28.78391       64.15691
H         43.82367       27.43583       63.27959
H         44.64640       25.60871       64.75451
H         46.09848       26.59612       65.17613
H         46.76361       26.64883       62.73497
H         45.34959       25.59877       62.33845
N         44.55372       28.94535       66.22188
C         43.92559       29.57443       67.36305
H         42.84158       29.35119       67.42683
H         44.42101       29.22615       68.29195
H         44.05613       30.67575       67.28528
H         45.56139       29.10149       66.12751
Ca        49.18485       22.61596       64.17725
O         46.78562       21.87689       66.68161
H         46.22704       21.24525       67.19975
H         46.24836       22.70505       66.64210
O         49.20588       20.12310       66.58894
H         48.72528       20.06431       67.45097
H         49.09591       19.22580       66.18920

Ca 1.0



