%chk=holoCaM.loop3.water1.frame17.chk
%nprocshared=20
%mem=10GB
%nosave
#b3lyp/svp scf=(tight,noincore,xqc) Test 
#IOP(5/87=12) Density=Current Pop=(MK,readradii) iop(6/33=2) iop(6/42=6)

holoCaM.loop3.water1.frame17 

   0  1 
C         62.58687       29.27631       44.73619
C         63.85540       30.04974       44.56159
O         64.43184       30.49349       45.54522
H         61.76658       29.77603       44.18146
H         62.72902       28.25008       44.33498
H         62.31430       29.20511       45.81009
N         64.37068       30.22342       43.31553
C         65.63887       30.89201       43.08565
C         65.55620       32.36465       43.47497
O         64.64690       33.04974       43.02774
C         66.08370       30.72460       41.61453
C         67.54530       31.02992       41.51993
O         68.05479       32.02220       40.77770
O         68.32081       30.35634       42.17528
H         63.86795       29.81144       42.51363
H         66.39563       30.36707       43.71148
H         65.46596       31.34870       40.94912
H         65.96741       29.66542       41.29864
N         66.49350       32.91435       44.29840
C         66.48027       34.30661       44.75321
C         66.43897       35.28169       43.58114
O         65.56932       36.14149       43.56575
C         67.71136       34.56629       45.65634
C         67.66039       35.91320       46.40015
C         68.88973       36.07540       47.31130
C         68.81769       37.36525       48.14253
N         70.00871       37.51545       48.98067
H         67.25806       32.30298       44.62165
H         65.57275       34.45719       45.38059
H         68.64213       34.49801       45.05209
H         67.73909       33.77107       46.43418
H         66.74020       35.93990       47.02488
H         67.62500       36.75525       45.67567
H         69.80747       36.08950       46.68360
H         68.95115       35.21199       48.01038
H         67.91521       37.33401       48.79367
H         68.73326       38.24524       47.46770
H         69.92165       38.38831       49.55013
H         70.10346       36.69926       49.62816
H         70.86243       37.58898       48.38080
N         67.32142       35.17530       42.54555
C         67.33339       36.07043       41.38625
C         66.84853       35.37794       40.10606
O         66.90493       35.99132       39.04924
C         68.72763       36.71858       41.24837
C         69.83732       35.73480       41.02554
O         70.82653       35.62103       41.93213
O         69.86319       35.05433       40.01516
H         67.99959       34.40094       42.56492
H         66.62713       36.91612       41.53835
H         68.93749       37.28105       42.18439
H         68.72690       37.44871       40.41028
N         66.24331       34.15501       40.14647
C         65.56681       33.53768       39.01315
C         66.45074       32.86219       37.98121
O         65.87830       32.27871       37.07040
H         66.11336       33.69945       41.05594
H         64.90539       34.28569       38.52325
H         64.89095       32.75078       39.40037
N         67.81659       32.89939       38.00335
C         68.60377       32.34792       36.89818
C         68.68132       30.81816       36.86456
O         69.06209       30.29492       35.82739
C         70.00326       32.99085       36.82257
C         70.97518       32.50393       37.86916
N         72.16773       31.98543       37.49730
O         70.70138       32.59287       39.05429
H         68.28635       33.45207       38.73113
H         68.09169       32.68597       35.96831
H         69.89021       34.09322       36.91145
H         70.42971       32.78466       35.81719
H         72.42664       31.91138       36.50240
H         72.84570       31.67107       38.20501
N         68.39226       30.04027       37.95265
C         68.43228       28.57884       37.93282
C         69.53210       27.97181       38.79341
O         69.58785       26.75090       38.86069
H         68.13093       30.48920       38.83737
H         68.58772       28.19471       36.90213
H         67.44521       28.20327       38.27864
N         70.46642       28.73094       39.43433
C         71.59050       28.18248       40.19511
C         71.57972       28.72197       41.61292
O         71.56680       29.93346       41.79315
C         72.90996       28.58799       39.51325
C         73.15481       27.84344       38.22125
C         73.07171       28.49657       36.98249
C         73.51342       26.48372       38.25283
C         73.34238       27.80728       35.79676
C         73.79937       25.79856       37.06721
C         73.71577       26.46035       35.83385
O         73.99790       25.81732       34.68260
H         70.41814       29.75702       39.34821
H         71.55852       27.07096       40.24243
H         73.77883       28.37673       40.17563
H         72.89047       29.68466       39.34993
H         72.79540       29.53594       36.92989
H         73.59739       25.96075       39.19764
H         73.27180       28.32483       34.84835
H         74.09369       24.75717       37.10895
H         74.28176       24.89216       34.66507
N         71.63513       27.86479       42.67255
C         71.66795       28.28784       44.06803
C         72.99887       27.86627       44.67489
O         73.33072       26.68833       44.63756
C         70.45401       27.68446       44.83921
C         69.13504       28.16995       44.18504
C         70.50188       28.08137       46.32793
C         67.86024       27.60798       44.81410
H         71.67464       26.84956       42.48728
H         71.58435       29.39422       44.14487
H         70.50152       26.57471       44.77535
H         69.12726       27.86104       43.11745
H         69.09021       29.27784       44.23846
H         71.43726       27.72763       46.80382
H         70.44264       29.18047       46.43598
H         69.67150       27.62051       46.89827
H         66.98166       27.96377       44.23477
H         67.87408       26.49857       44.79257
H         67.73316       27.96324       45.85637
N         73.78928       28.78745       45.29679
C         75.05489       28.47484       45.95588
C         74.85117       28.38623       47.45939
O         73.72599       28.51395       47.90824
C         76.10869       29.53181       45.57314
O         75.73976       30.80523       46.03974
H         73.43928       29.75286       45.37169
H         75.42872       27.47999       45.62915
H         76.25648       29.53817       44.46797
H         77.09683       29.27818       46.00898
H         75.31711       31.28706       45.28163
N         75.88565       28.12922       48.30577
C         75.71502       27.96518       49.74967
C         75.08314       29.18882       50.39725
O         74.08085       29.04052       51.08159
C         77.06202       27.65737       50.41126
H         76.83036       28.02063       47.90513
H         75.05561       27.08707       49.93638
H         76.92296       27.49125       51.50120
H         77.49187       26.73085       49.97299
H         77.78018       28.49079       50.26052
N         75.60657       30.43189       50.20523
C         75.05082       31.64680       50.80376
C         73.58650       31.82898       50.45196
O         72.76538       32.00939       51.34015
C         75.83113       32.87383       50.30773
H         76.42951       30.51628       49.58831
H         75.15524       31.59748       51.90979
H         76.90218       32.78693       50.58447
H         75.76194       32.96801       49.20141
H         75.42170       33.80062       50.76412
N         73.20455       31.79015       49.15225
C         71.84818       32.02097       48.66631
C         70.83860       31.09076       49.32868
O         69.87313       31.58207       49.89715
C         71.89918       31.88719       47.13724
C         70.59737       32.15685       46.39253
C         70.83542       32.17004       44.90180
O         69.78368       32.18030       44.08137
O         71.96004       32.14205       44.42399
H         73.94467       31.59040       48.45949
H         71.55397       33.06914       48.89898
H         72.24475       30.86707       46.87438
H         72.65413       32.62478       46.78249
H         70.16993       33.13828       46.68475
H         69.86237       31.36672       46.65064
N         71.01358       29.74404       49.33476
C         70.10027       28.83761       49.99682
H         69.09569       28.89758       49.52914
H         70.47391       27.79428       49.90852
H         70.02740       29.09133       51.07638
H         71.83711       29.34790       48.88113
Ca        69.86793       32.66682       41.89349
O         72.89688       33.35625       41.13578
H         73.11165       34.32224       41.16619
H         73.64303       32.95303       40.62533

Ca 1.0



