%chk=holoCaM-CaMKII.loop1.water2.frame279.chk
%nprocshared=20
%mem=10GB
%nosave
#b3lyp/svp scf=(tight,noincore,xqc) Test 
#IOP(5/87=12) Density=Current Pop=(MK,readradii) iop(6/33=2) iop(6/42=6)

holoCaM-CaMKII.loop1.water2.frame279 

   0  1 
C         42.71819       27.27841       65.44921
C         43.38268       27.94657       64.28217
O         43.20009       27.48965       63.16691
H         41.61803       27.28271       65.30061
H         43.07374       26.22989       65.52768
H         42.94730       27.80139       66.40158
N         44.16740       29.04285       64.46971
C         44.83151       29.77958       63.39805
C         46.19625       29.15382       63.09602
O         47.21938       29.78049       63.33037
C         44.88695       31.26842       63.82310
C         45.52470       32.17305       62.81371
O         45.09482       32.23853       61.67466
O         46.55499       32.95287       63.18512
H         44.26836       29.40004       65.43273
H         44.21422       29.75264       62.47423
H         45.43410       31.36850       64.78609
H         43.84562       31.62394       63.98275
N         46.27486       27.88822       62.58618
C         47.52855       27.18004       62.32660
C         48.30181       27.67156       61.11422
O         49.40666       27.18003       60.92372
C         47.25899       25.65954       62.19633
C         46.86044       25.00714       63.53690
C         48.04522       25.00617       64.52394
C         47.73175       24.28876       65.83552
N         48.90363       24.31719       66.71363
H         45.40187       27.37475       62.42539
H         48.21038       27.35795       63.17588
H         48.16492       25.12571       61.83498
H         46.46158       25.49923       61.43624
H         46.58151       23.95081       63.33179
H         45.97662       25.51857       63.97758
H         48.34068       26.03856       64.78911
H         48.90988       24.49940       64.04109
H         47.45073       23.23328       65.62726
H         46.87906       24.79427       66.34057
H         48.68152       23.82345       67.60693
H         49.71094       23.83727       66.25185
H         49.16822       25.30641       66.93045
N         47.84206       28.64850       60.28455
C         48.66515       29.21972       59.21370
C         49.10111       30.65109       59.54779
O         49.94435       31.18434       58.84075
C         47.99205       29.07640       57.83147
C         46.68057       29.79438       57.69732
O         46.13807       30.41579       58.75657
O         46.11462       29.82188       56.61843
H         46.91006       29.03885       60.46548
H         49.62135       28.65741       59.13861
H         47.83184       27.99963       57.60757
H         48.69021       29.48438       57.06748
N         48.65057       31.29075       60.66603
C         49.23533       32.50520       61.20415
C         49.09064       33.73962       60.35249
O         50.10413       34.35947       60.06295
H         47.92641       30.85557       61.24651
H         50.30814       32.31669       61.42467
H         48.75219       32.72652       62.17565
N         47.86270       34.20926       59.99045
C         47.66790       35.52274       59.36614
C         46.82012       36.45091       60.23273
O         46.71568       37.61903       59.88653
C         47.15039       35.38912       57.91697
C         45.85755       34.64489       57.73489
O         45.13139       34.23378       58.78487
O         45.52070       34.30884       56.61120
H         47.04198       33.62818       60.21374
H         48.64896       36.03904       59.28057
H         47.92934       34.81659       57.36696
H         47.06476       36.38809       57.43823
N         46.21392       36.02505       61.38135
C         45.50146       36.90185       62.29512
C         44.01808       36.62181       62.33361
O         43.35507       37.19836       63.18571
H         46.25778       35.03790       61.65877
H         45.63298       37.97414       62.03685
H         45.93395       36.74887       63.30808
N         43.40752       35.81714       61.41418
C         41.96647       35.59362       61.38166
C         41.62697       34.11335       61.38889
O         42.50679       33.27274       61.25604
C         41.34329       36.28953       60.14250
C         41.42527       37.82014       60.23727
O         41.92789       35.83046       58.94761
H         43.97127       35.38814       60.66899
H         41.49229       36.02560       62.29056
H         40.25960       36.04999       60.09903
H         42.81673       36.26259       58.84639
H         42.47943       38.16557       60.28259
H         40.93863       38.27562       59.34865
H         40.89241       38.17134       61.14658
N         40.33361       33.73643       61.58623
C         39.85784       32.35977       61.62846
C         38.73709       32.19587       60.61216
O         37.82018       33.00658       60.57832
C         39.40125       31.99457       63.07159
C         40.64043       32.00911       64.01124
C         38.72205       30.60697       63.09873
C         40.32342       31.73695       65.48163
H         39.63544       34.47781       61.75730
H         40.67078       31.64538       61.37838
H         38.65809       32.74734       63.41578
H         41.12732       33.00596       63.96517
H         41.37827       31.24996       63.66584
H         37.82692       30.59357       62.44466
H         39.42542       29.81617       62.76239
H         38.35179       30.35651       64.11148
H         41.26144       31.79795       66.07333
H         39.60769       32.49327       65.86515
H         39.90925       30.71978       65.63056
N         38.72381       31.10447       59.80132
C         37.69676       30.80534       58.81080
C         36.87141       29.61420       59.26453
O         37.13479       29.06517       60.32331
C         38.37932       30.49768       57.45225
C         39.10116       31.73291       56.90875
O         39.28973       29.43993       57.62686
H         39.46562       30.40631       59.92688
H         36.99184       31.65835       58.69535
H         37.61255       30.19738       56.70558
H         39.75862       29.29644       56.76537
H         39.88358       32.05870       57.61994
H         39.57854       31.49356       55.93391
H         38.37810       32.55945       56.75010
N         35.83536       29.16450       58.50588
C         35.03439       27.99276       58.85340
C         35.91422       26.75123       58.90839
O         35.90736       26.06091       59.91714
C         33.87268       27.78709       57.84528
C         32.86070       28.93880       57.90287
O         34.37010       27.66402       56.53695
H         35.61789       29.67393       57.63628
H         34.56950       28.14140       59.85543
H         33.33922       26.85183       58.13924
H         33.69171       27.16384       56.01299
H         32.43780       29.02659       58.92617
H         33.32764       29.90588       57.62401
H         32.02683       28.73978       57.19699
N         36.71702       26.42943       57.85465
C         37.58423       25.25320       57.80939
C         38.51919       25.18222       59.00601
O         38.58161       24.13570       59.63677
C         38.34080       25.17419       56.45782
C         39.29374       26.34522       56.15430
C         39.87245       26.22613       54.73803
C         40.79773       27.40653       54.40818
N         41.30528       27.30483       53.03979
H         36.70832       27.06156       57.04286
H         36.94099       24.34524       57.84088
H         37.57044       25.13506       55.65617
H         38.91773       24.22416       56.41996
H         40.12454       26.36232       56.89053
H         38.73643       27.29930       56.20911
H         39.03428       26.21581       54.00664
H         40.44018       25.27492       54.64490
H         41.65284       27.42044       55.12011
H         40.23706       28.36191       54.51365
H         41.84706       26.41844       52.91983
H         40.51007       27.32629       52.36018
H         41.93484       28.11675       52.84537
N         39.22939       26.26941       59.41362
C         40.10461       26.26283       60.58412
C         39.34076       25.83604       61.82948
O         39.74241       24.86236       62.45191
C         40.76382       27.64729       60.76554
C         41.79055       27.90670       59.64361
C         42.49354       29.22525       59.77808
O         41.88060       30.27173       59.66382
O         43.82431       29.25681       59.96986
H         39.11149       27.14650       58.88631
H         40.92199       25.52163       60.43255
H         41.29910       27.67099       61.73135
H         39.98264       28.43120       60.80137
H         41.30904       27.86911       58.64559
H         42.55761       27.10328       59.68855
N         38.21205       26.48381       62.22631
C         37.41018       26.07406       63.36311
H         36.39220       25.80082       63.01166
H         37.83747       25.19628       63.89250
H         37.32768       26.91415       64.08274
H         37.88154       27.28629       61.68248
Ca        44.64490       32.06487       58.70737
O         43.93729       31.57378       55.65061
H         43.54225       32.45514       55.43808
H         44.90449       31.70327       55.48894
O         42.16764       33.12566       57.49530
H         42.07491       33.32804       58.45897
H         41.61891       33.80956       57.03590

Ca 1.0



