%chk=holoCaM.loop1.water2.frame453.chk
%nprocshared=20
%mem=10GB
%nosave
#b3lyp/svp scf=(tight,noincore,xqc) Test 
#IOP(5/87=12) Density=Current Pop=(MK,readradii) iop(6/33=2) iop(6/42=6)

holoCaM.loop1.water2.frame453 

   0  1 
C         10.26810       83.39028       41.85720
C          8.99955       84.09720       41.49349
O          7.92528       83.55343       41.70286
H         10.83834       84.00456       42.58620
H         10.05202       82.40120       42.31293
H         10.88192       83.24388       40.94428
N          9.05557       85.34802       40.96493
C          7.86585       86.11158       40.61832
C          7.19388       85.49356       39.39502
O          7.77005       85.54330       38.31674
C          8.28444       87.57394       40.37703
C          7.15310       88.51493       40.14824
O          7.40016       89.69189       39.97535
O          5.87815       88.09581       40.15071
H          9.98529       85.78490       40.85716
H          7.18187       86.09793       41.49692
H          8.97905       87.62894       39.51044
H          8.82500       87.93634       41.27987
N          6.00489       84.83042       39.50774
C          5.43298       84.05009       38.40957
C          4.57742       84.86827       37.43677
O          4.30842       84.35480       36.35979
C          4.61686       82.84561       38.94220
C          5.46038       81.90316       39.82357
C          4.67966       80.63957       40.21000
C          5.54159       79.69879       41.06665
N          4.83458       78.44955       41.34925
H          5.62167       84.71238       40.45251
H          6.27831       83.61826       37.82707
H          4.24707       82.26403       38.06915
H          3.73685       83.20517       39.52081
H          5.77802       82.42785       40.74816
H          6.36695       81.59522       39.25813
H          4.38205       80.10793       39.27995
H          3.76185       80.91487       40.77493
H          5.80542       80.20214       42.02395
H          6.48439       79.46082       40.52529
H          3.94776       78.64243       41.86845
H          4.61921       77.95179       40.45438
H          5.44542       77.83421       41.93401
N          4.06401       86.09764       37.74595
C          3.22081       86.88303       36.82671
C          3.77330       88.29161       36.57240
O          3.13197       89.04004       35.84751
C          1.74841       86.90466       37.30938
C          1.62612       87.30483       38.73868
O          1.20630       86.49200       39.54862
O          2.14280       88.46221       39.17998
H          4.23687       86.47804       38.68749
H          3.17767       86.40329       35.82469
H          1.34355       85.87084       37.21387
H          1.12754       87.56238       36.66548
N          4.98758       88.69457       37.04750
C          5.62334       89.95134       36.67222
C          4.99226       91.19378       37.26472
O          4.62042       92.08472       36.51440
H          5.55419       88.04241       37.60463
H          5.66064       90.02329       35.56242
H          6.67252       89.93360       37.03615
N          4.90265       91.34385       38.61539
C          4.45713       92.56877       39.28219
C          5.47546       93.05842       40.32433
O          5.13206       93.91248       41.13057
C          3.04657       92.36406       39.87344
C          2.90336       91.29654       40.91822
O          3.95325       90.57019       41.33514
O          1.80160       91.08139       41.39425
H          5.17569       90.54602       39.20265
H          4.32787       93.39592       38.54942
H          2.36323       92.10914       39.03454
H          2.69870       93.32522       40.31155
N          6.76636       92.60869       40.32905
C          7.78854       93.04391       41.27286
C          7.63440       92.51705       42.69346
O          8.48722       92.84592       43.50389
H          7.07613       91.98883       39.57180
H          7.83279       94.15539       41.28302
H          8.77480       92.67500       40.91505
N          6.59420       91.71979       43.08278
C          6.41445       91.24542       44.45847
C          6.19987       89.73331       44.52288
O          6.08182       89.08289       43.49641
C          5.22093       91.98721       45.11205
C          5.49599       93.48890       45.27551
O          4.03172       91.77470       44.39318
H          5.87556       91.47723       42.39830
H          7.32187       91.46369       45.06277
H          5.06627       91.59557       46.13991
H          4.05829       92.33095       43.57136
H          4.63090       93.97421       45.77453
H          6.39848       93.64308       45.90447
H          5.65664       93.97664       44.29110
N          6.15872       89.11970       45.74681
C          5.94325       87.69042       45.96646
C          4.74254       87.52222       46.90371
O          4.72987       88.10924       47.97508
C          7.22040       87.04760       46.59492
C          8.50315       87.28172       45.74938
C          7.02914       85.54005       46.86177
C          8.52408       86.60215       44.37501
H          6.31365       89.69923       46.58429
H          5.74477       87.16556       45.00671
H          7.40012       87.54020       47.57616
H          9.37764       86.90322       46.32304
H          8.65414       88.37277       45.60857
H          7.94429       85.10707       47.31842
H          6.19770       85.36986       47.56978
H          6.80243       84.98756       45.92634
H          8.47405       85.49784       44.47016
H          7.69010       86.95515       43.73956
H          9.47866       86.84630       43.86226
N          3.72624       86.67811       46.57506
C          2.58761       86.36870       47.43720
C          2.87139       85.10055       48.22481
O          3.91229       84.48670       48.04721
C          1.31306       86.11028       46.57333
C          0.85591       87.35075       45.79944
O          1.56149       85.01872       45.71296
H          3.84078       86.12209       45.73183
H          2.40409       87.19514       48.15761
H          0.46090       85.84015       47.23209
H          1.13422       85.16788       44.83038
H          1.63103       87.63675       45.07192
H         -0.07914       87.11685       45.24269
H          0.64545       88.19119       46.49129
N          1.93725       84.62153       49.09077
C          2.01635       83.29223       49.68824
C          1.92506       82.25531       48.56388
O          2.68840       81.30346       48.54314
C          0.85925       83.10326       50.69954
C          1.00838       81.79568       51.48330
O          0.86995       84.16990       51.61558
H          1.09879       85.19400       49.27227
H          2.97024       83.19542       50.25457
H         -0.10486       83.09750       50.13574
H         -0.07227       84.33384       51.88415
H          1.96023       81.80572       52.05876
H          0.16796       81.69107       52.20132
H          1.00571       80.91831       50.80511
N          1.01373       82.44062       47.56408
C          0.82416       81.59480       46.37711
C          2.05892       81.50013       45.45619
O          2.02420       80.68888       44.54201
C         -0.40152       82.18217       45.62093
C         -0.82450       81.58063       44.27492
C         -2.04647       82.37144       43.76004
C         -2.53288       81.96769       42.36199
N         -1.54226       82.26396       41.32469
H          0.39648       83.26177       47.66414
H          0.58488       80.56462       46.72071
H         -0.18684       83.25165       45.42213
H         -1.27086       82.13459       46.31493
H         -1.07877       80.50464       44.38524
H          0.01008       81.69457       43.55637
H         -1.80740       83.45850       43.73315
H         -2.88519       82.22643       44.47628
H         -3.45210       82.55854       42.14735
H         -2.80341       80.89014       42.34083
H         -1.25825       83.27024       41.37086
H         -0.70302       81.65162       41.42786
H         -1.96842       82.08213       40.38767
N          3.17542       82.26859       45.62475
C          4.37199       82.19505       44.77578
C          5.60820       81.77972       45.56733
O          6.65495       81.61737       44.95388
C          4.61802       83.57679       44.13542
C          3.53775       83.92333       43.10304
C          3.54180       85.37974       42.73980
O          3.82611       85.77703       41.50211
O          3.20560       86.22146       43.54844
H          3.18153       82.96203       46.37571
H          4.24852       81.43550       43.97233
H          5.60310       83.62602       43.61879
H          4.64400       84.30873       44.96034
H          2.52370       83.69506       43.48636
H          3.71274       83.29608       42.20141
N          5.58237       81.57770       46.91433
C          6.74658       81.15391       47.65871
H          7.56232       81.89851       47.54840
H          6.49014       81.06267       48.73653
H          7.08748       80.16240       47.29263
H          4.72238       81.72626       47.44599
Ca         3.29259       87.88180       40.97679
O          2.35516       89.56315       43.71755
H          2.63899       89.67015       44.65966
H          1.38844       89.77752       43.72677
O          0.38601       87.53869       42.27003
H          0.59850       88.24118       41.60582
H         -0.31590       87.94516       42.83679

Ca 1.0



