%chk=holoCaM.loop4.water3.frame470.chk
%nprocshared=20
%mem=10GB
%nosave
#b3lyp/svp scf=(tight,noincore,xqc) Test 
#IOP(5/87=12) Density=Current Pop=(MK,readradii) iop(6/33=2) iop(6/42=6)

holoCaM.loop4.water3.frame470 

   -3  1 
C         33.69453       54.64445       80.82248
C         33.55726       53.19276       80.46977
O         33.52230       52.87487       79.29119
H         34.63924       55.03513       80.38667
H         32.83829       55.21814       80.41478
H         33.73736       54.79199       81.92253
N         33.50660       52.25046       81.45104
C         33.50667       50.81578       81.20533
C         32.25508       50.18535       81.80119
O         31.97181       50.38080       82.97421
C         34.82594       50.26122       81.77286
C         35.02713       48.77496       81.65561
O         35.28134       48.14975       82.67061
O         34.99106       48.11671       80.47288
H         33.53304       52.56110       82.43487
H         33.51524       50.61284       80.11993
H         34.90409       50.54076       82.84739
H         35.66150       50.75739       81.23292
N         31.46574       49.39614       81.01844
C         30.20784       48.77794       81.43225
C         30.41440       47.28485       81.67869
O         29.77067       46.75848       82.57608
C         29.10197       49.03218       80.34302
C         28.86449       50.55411       80.13808
C         27.77500       48.32129       80.68922
C         27.91513       50.88978       78.97707
H         31.78958       49.20617       80.06374
H         29.85399       49.21923       82.39117
H         29.46129       48.60075       79.38422
H         29.83337       51.04211       79.91154
H         28.46725       51.00713       81.07210
H         27.35068       48.71563       81.63625
H         27.02666       48.44679       79.88047
H         27.92169       47.22636       80.78320
H         26.88511       50.52481       79.16235
H         27.85338       51.99204       78.85365
H         28.28841       50.45228       78.02729
N         31.25515       46.53320       80.90603
C         31.37010       45.07622       81.01560
C         32.77305       44.56900       81.37270
O         32.93862       43.35977       81.45814
C         30.84504       44.43620       79.71194
C         31.60521       44.78502       78.45757
O         32.67561       45.59857       78.48392
O         31.23632       44.32367       77.39032
H         31.79460       47.00609       80.17190
H         30.70627       44.70187       81.82531
H         29.79059       44.76133       79.57281
H         30.84750       43.33115       79.82571
N         33.81203       45.40668       81.65204
C         35.12325       44.93669       82.10145
C         35.97348       44.22151       81.06292
O         37.06474       43.80227       81.42432
H         33.64197       46.41790       81.64250
H         34.98099       44.27264       82.98187
H         35.72508       45.79939       82.44252
N         35.57288       44.03342       79.77483
C         36.36959       43.29676       78.79513
C         37.73226       43.92533       78.49273
O         38.71478       43.19815       78.52087
C         35.57421       42.99735       77.49923
C         35.00083       44.15403       76.72148
O         35.06875       45.41951       77.16570
O         34.41389       43.92692       75.67634
H         34.65013       44.38096       79.48942
H         36.57288       42.28277       79.21122
H         34.71693       42.34192       77.76697
H         36.24122       42.41789       76.82348
N         37.87386       45.24645       78.18793
C         39.14100       45.85948       77.79895
C         39.05444       46.58616       76.46368
O         40.03859       47.21358       76.09096
H         37.05876       45.86312       78.26117
H         39.96266       45.11326       77.74389
H         39.41360       46.60473       78.57551
N         37.92422       46.57415       75.69793
C         37.74931       47.32381       74.45867
C         36.61718       48.33265       74.61762
O         36.05465       48.43644       75.70463
C         37.45757       46.35243       73.29465
C         38.64989       45.43015       72.99475
C         38.43065       44.57771       71.76483
N         39.41412       43.75671       71.33204
O         37.37844       44.63332       71.14346
H         37.11648       46.01918       76.00390
H         38.66417       47.90524       74.20455
H         37.27064       46.93731       72.37158
H         36.54838       45.75040       73.51693
H         38.85057       44.77166       73.86692
H         39.54691       46.06049       72.80972
H         40.31212       43.70225       71.83420
H         39.28147       43.18251       70.48610
N         36.23393       49.12427       73.57512
C         35.20629       50.15368       73.66852
C         34.01336       49.77551       72.80386
O         34.15418       49.67450       71.59072
C         35.80781       51.52138       73.23591
C         34.75968       52.64304       73.23394
C         36.97449       51.92400       74.15022
H         36.70248       49.01397       72.66184
H         34.85174       50.25210       74.71874
H         36.20043       51.42691       72.19787
H         35.22493       53.59709       72.90806
H         33.95130       52.41793       72.51180
H         34.32168       52.77863       74.24501
H         37.77834       51.15891       74.12689
H         37.41444       52.88451       73.80570
H         36.62446       52.04649       75.19749
N         32.79274       49.56738       73.37608
C         31.56920       49.31250       72.61834
C         31.01024       50.63704       72.09579
O         31.55938       51.67298       72.42296
C         30.56565       48.58101       73.54441
C         29.29790       48.12378       72.87300
N         29.33665       47.23347       71.85402
O         28.22143       48.54810       73.26579
H         32.72004       49.62840       74.40199
H         31.81232       48.63850       71.76808
H         30.31644       49.24376       74.40079
H         31.05818       47.67242       73.94850
H         30.23329       46.85399       71.51727
H         28.46543       46.91698       71.40355
N         29.93835       50.68993       71.25811
C         29.39210       51.94591       70.73701
C         28.83409       52.84180       71.83874
O         29.23431       53.99568       71.90720
C         28.36868       51.70205       69.60507
C         27.14967       50.88510       69.95701
C         27.15694       49.49107       69.77550
C         25.97552       51.51024       70.40686
C         26.01950       48.73370       70.05912
C         24.83403       50.75023       70.68185
C         24.85429       49.35816       70.51166
O         23.76140       48.61314       70.77111
H         29.53216       49.80320       70.94280
H         30.21764       52.50352       70.23786
H         28.89843       51.19032       68.77169
H         28.04532       52.67931       69.18291
H         28.04206       48.98683       69.40867
H         25.94168       52.58486       70.53800
H         26.04321       47.66059       69.91736
H         23.93451       51.24427       71.02503
H         22.93183       49.00599       71.07715
N         27.94242       52.37219       72.75874
C         27.41474       53.18177       73.86432
C         28.54359       53.78957       74.67139
O         28.50502       54.97423       74.97358
C         26.55997       52.31474       74.82893
C         25.25553       51.77423       74.21939
C         24.22925       52.83866       73.91835
O         24.45118       54.13586       74.20985
O         23.15754       52.51451       73.43374
H         27.67590       51.37866       72.69998
H         26.79447       54.01184       73.46768
H         26.28899       52.90257       75.73520
H         27.17702       51.45282       75.16897
H         24.79501       51.07373       74.94921
H         25.48300       51.19970       73.30213
N         29.59185       53.01293       75.03915
C         30.70673       53.46566       75.86151
C         31.40013       54.66187       75.23009
O         31.49895       55.69419       75.87867
C         31.68494       52.29225       76.09874
C         30.97023       51.14198       76.83889
C         31.84471       49.97427       77.15734
O         31.36195       49.01605       77.73476
O         33.15877       49.97750       76.88360
H         29.58657       52.04335       74.69447
H         30.31989       53.78009       76.85808
H         32.53720       52.64804       76.71767
H         32.08229       51.92434       75.12912
H         30.11580       50.74898       76.25890
H         30.57883       51.53915       77.79691
N         31.86516       54.60564       73.95328
C         32.49150       55.71647       73.26706
H         33.50388       55.41674       72.92799
H         31.88356       55.98224       72.37611
H         32.58491       56.61560       73.91022
H         31.74489       53.74117       73.42218
Ca        34.37978       49.00383       78.49409
O         32.83675       46.90991       75.78244
H         33.36361       46.39518       75.12143
H         31.96340       46.44494       75.81774
O         37.19603       48.43910       78.64265
H         37.96943       48.94410       78.28994
H         37.49733       48.09601       79.52100
O         35.96805       51.41581       78.33958
H         36.58889       50.99983       77.69165
H         35.11454       51.48263       77.84362

Ca 1.0



