%chk=holoCaM-CaMKII.loop1.water2.frame218.chk
%nprocshared=20
%mem=10GB
%nosave
#b3lyp/svp scf=(tight,noincore,xqc) Test 
#IOP(5/87=12) Density=Current Pop=(MK,readradii) iop(6/33=2) iop(6/42=6)

holoCaM-CaMKII.loop1.water2.frame218 

   0  1 
C         26.90942       72.31445       50.64684
C         26.35574       73.23507       51.69816
O         25.47099       74.00362       51.37843
H         27.70780       71.65696       51.05124
H         26.09932       71.67051       50.25054
H         27.33801       72.91491       49.81737
N         26.83168       73.18457       52.97361
C         26.42196       74.01140       54.12240
C         26.76506       75.50059       53.91501
O         27.70425       75.99740       54.52012
C         27.10558       73.37535       55.36693
C         26.98455       74.08620       56.67934
O         25.81045       74.44044       57.22377
O         28.00514       74.35576       57.29218
H         27.55246       72.46479       53.14310
H         25.33007       73.92593       54.30132
H         28.19411       73.25965       55.16334
H         26.68014       72.35936       55.50218
N         26.01703       76.27708       53.07061
C         26.29201       77.68129       52.75118
C         25.91224       78.66330       53.86067
O         26.18051       79.84387       53.68675
C         25.52727       78.08296       51.46272
C         26.06515       77.34563       50.22490
C         25.28610       77.73113       48.95883
C         25.92683       77.18349       47.67024
N         25.98172       75.72100       47.63513
H         25.21286       75.84932       52.60441
H         27.37932       77.79476       52.54507
H         25.65931       79.17057       51.27131
H         24.43928       77.88677       51.59779
H         25.99889       76.25150       50.37176
H         27.13367       77.62392       50.09596
H         25.27170       78.83907       48.86774
H         24.23513       77.37634       49.04414
H         26.95498       77.59583       47.56444
H         25.32647       77.54285       46.80512
H         26.37495       75.42291       46.71299
H         26.61030       75.35493       48.38490
H         25.02231       75.31920       47.73990
N         25.28771       78.27333       55.00763
C         24.90878       79.20214       56.08450
C         25.72259       78.96430       57.35505
O         25.57001       79.73367       58.29420
C         23.37137       79.16628       56.33087
C         22.82976       77.80591       56.69758
O         23.69365       76.79517       56.86032
O         21.62810       77.61503       56.78356
H         25.08619       77.27468       55.11854
H         25.15070       80.24514       55.78476
H         22.88050       79.47752       55.38307
H         23.09112       79.90140       57.11663
N         26.65109       77.96835       57.43926
C         27.55880       77.79891       58.56028
C         26.86482       77.48865       59.86260
O         27.10827       78.17528       60.84402
H         26.78061       77.31831       56.65268
H         28.19339       78.70545       58.66584
H         28.23324       76.94385       58.33542
N         26.02300       76.42544       59.94799
C         25.42911       75.94504       61.19187
C         25.85352       74.50116       61.48841
O         25.41385       73.95666       62.49178
C         23.89407       76.11536       61.14357
C         23.17891       75.30544       60.09668
O         23.84250       74.45065       59.30000
O         21.96869       75.41017       59.98193
H         25.81480       75.91762       59.08245
H         25.77927       76.56325       62.04707
H         23.67417       77.19003       60.96123
H         23.46911       75.84375       62.13416
N         26.72434       73.82718       60.67644
C         27.17560       72.46486       60.90424
C         26.04848       71.46928       60.79431
O         25.88336       70.66660       61.69762
H         27.12553       74.29278       59.85248
H         27.68655       72.38833       61.88898
H         27.91727       72.20618       60.11678
N         25.27608       71.44076       59.67157
C         24.17365       70.50820       59.41299
C         23.75351       70.64744       57.94864
O         23.46532       71.75175       57.50944
C         22.91597       70.71015       60.31829
C         23.06780       70.35943       61.80743
O         22.38273       71.99860       60.17905
H         25.52839       72.11052       58.92773
H         24.53487       69.46710       59.56550
H         22.15604       69.98726       59.94524
H         22.95271       72.60809       60.71320
H         22.07053       70.38848       62.29509
H         23.48536       69.33714       61.92817
H         23.69133       71.09905       62.34528
N         23.68059       69.55057       57.14295
C         23.36263       69.59813       55.71665
C         21.94443       69.10551       55.50028
O         21.58339       68.05356       56.00908
C         24.40521       68.76023       54.91560
C         25.80868       69.40295       55.06428
C         24.00739       68.65299       53.42652
C         26.94060       68.59230       54.43120
H         23.84160       68.62195       57.56277
H         23.41246       70.64092       55.33159
H         24.42605       67.72984       55.33645
H         26.05445       69.50766       56.14275
H         25.79685       70.41612       54.60886
H         23.01615       68.16670       53.31698
H         23.96766       69.65754       52.95472
H         24.71566       68.01391       52.86389
H         26.81879       68.50224       53.33359
H         27.90590       69.10978       54.61508
H         26.98773       67.58016       54.88529
N         21.10364       69.81704       54.69097
C         19.72186       69.44075       54.41624
C         19.57474       68.93845       52.98952
O         20.52999       68.96018       52.22596
C         18.77176       70.64855       54.66068
C         18.83241       71.16590       56.10173
O         19.02389       71.68856       53.74424
H         21.47602       70.64640       54.20959
H         19.41837       68.60337       55.08164
H         17.72304       70.32384       54.49675
H         19.81700       72.19779       54.05237
H         18.12198       72.01184       56.22552
H         18.55628       70.36017       56.81291
H         19.85447       71.52458       56.33566
N         18.37284       68.44782       52.57653
C         18.10920       67.96074       51.22474
C         18.29628       69.06793       50.20592
O         18.85953       68.80919       49.15190
C         16.68271       67.37394       51.10627
C         16.50691       66.13656       51.99819
O         15.72727       68.34828       51.43973
H         17.60599       68.42437       53.26387
H         18.81554       67.13415       50.98155
H         16.54268       67.05269       50.04656
H         14.86572       68.05271       51.04516
H         17.25364       65.36014       51.72596
H         16.62856       66.38497       53.07250
H         15.49240       65.71023       51.85389
N         17.87163       70.33637       50.46935
C         18.07547       71.45535       49.55609
C         19.55857       71.63665       49.27723
O         19.95968       71.64242       48.12194
C         17.50443       72.75222       50.18163
C         17.51662       73.94128       49.20621
C         17.08159       75.23119       49.92198
C         16.98444       76.44586       48.98312
N         15.85367       76.33862       48.05810
H         17.40841       70.51764       51.37349
H         17.52761       71.25053       48.60902
H         18.08327       73.00575       51.09692
H         16.44891       72.57985       50.48698
H         16.83431       73.69621       48.36644
H         18.53808       74.10407       48.79878
H         17.84626       75.45513       50.69878
H         16.10365       75.09139       50.43130
H         17.93485       76.57534       48.41906
H         16.83431       77.35350       49.60890
H         15.80412       77.20755       47.47891
H         15.96359       75.52210       47.41755
H         14.96131       76.24891       48.59733
N         20.42626       71.80211       50.31472
C         21.85054       72.07319       50.14506
C         22.61856       70.92175       49.50688
O         23.77428       71.12576       49.16131
C         22.48648       72.40740       51.50971
C         21.88952       73.68643       52.12331
C         22.48979       73.97726       53.46280
O         22.38138       73.07980       54.45998
O         23.04890       75.04188       53.66559
H         20.03756       71.77161       51.26769
H         21.95429       72.96002       49.48008
H         23.57291       72.55258       51.38117
H         22.34279       71.54466       52.19545
H         20.79654       73.58478       52.26887
H         22.06821       74.54290       51.43664
N         22.07246       69.68873       49.32661
C         22.80316       68.60688       48.70391
H         23.72460       68.38515       49.28308
H         22.17231       67.69306       48.67336
H         23.07506       68.88512       47.66332
H         21.12030       69.49545       49.65030
Ca        23.67949       74.57989       56.53994
O         20.27339       75.10239       55.69132
H         19.42449       75.30451       56.15893
H         20.41463       75.87472       55.08830
O         20.68683       73.31138       58.15404
H         19.76141       73.66176       58.14259
H         20.58315       72.35884       58.40188

Ca 1.0



