%chk=holoCaM.loop3.water2.frame145.chk
%nprocshared=20
%mem=10GB
%nosave
#b3lyp/svp scf=(tight,noincore,xqc) Test 
#IOP(5/87=12) Density=Current Pop=(MK,readradii) iop(6/33=2) iop(6/42=6)

holoCaM.loop3.water2.frame145 

   0  1 
C         12.41790       93.17505        1.39089
C         13.01956       93.32340        2.75442
O         14.23065       93.22687        2.89527
H         11.86674       94.10300        1.12741
H         13.20515       92.99736        0.62861
H         11.71078       92.31963        1.39002
N         12.21493       93.59013        3.81652
C         12.72886       93.78603        5.16291
C         13.28732       92.47826        5.70786
O         12.54545       91.50804        5.78777
C         11.60007       94.30175        6.07027
C         12.07986       94.72423        7.42113
O         13.26436       94.70191        7.71890
O         11.17724       95.14017        8.31992
H         11.20252       93.69960        3.64401
H         13.51037       94.57884        5.12188
H         10.82293       93.51567        6.18138
H         11.12283       95.19226        5.60897
N         14.59316       92.37595        6.08695
C         15.17635       91.12105        6.56016
C         14.54824       90.69547        7.87253
O         13.91841       89.64816        7.92638
C         16.71356       91.23079        6.71311
C         17.44935       91.63493        5.41649
C         17.09569       90.78649        4.18331
C         17.36408       89.28725        4.38018
N         16.97180       88.53460        3.19067
H         15.19108       93.21027        5.99726
H         14.96364       90.33234        5.80839
H         17.09868       90.24692        7.05655
H         16.98504       91.97408        7.49310
H         18.54289       91.58264        5.60787
H         17.21423       92.69180        5.16926
H         17.69298       91.15618        3.32224
H         16.02602       90.94199        3.92721
H         16.78077       88.89987        5.24220
H         18.44427       89.12674        4.58935
H         15.95095       88.67114        3.00422
H         17.52732       88.85130        2.36371
H         17.14905       87.51781        3.35601
N         14.66513       91.49372        8.96745
C         14.00681       91.23511       10.24478
C         12.51514       91.04772       10.01970
O         12.00947       89.97250       10.31310
C         14.31167       92.34525       11.30425
C         14.21804       93.77797       10.80567
O         15.05877       94.22418       10.04300
O         13.24250       94.60061       11.21635
H         15.22577       92.33850        8.84736
H         14.38580       90.27585       10.66635
H         15.34489       92.21168       11.69094
H         13.62370       92.19036       12.16557
N         11.75578       92.03594        9.48080
C         10.34571       91.88063        9.16761
C          9.45585       92.68342       10.08770
O          8.24916       92.62715        9.89604
H         12.19873       92.93622        9.27687
H         10.02752       90.81978        9.25514
H         10.18109       92.18009        8.11000
N          9.94943       93.41411       11.13475
C          9.07532       94.09697       12.08765
C          8.23186       95.21089       11.46044
O          7.34630       95.70721       12.14195
C          9.87480       94.64648       13.30287
C         10.84625       95.75250       12.96978
N         11.54680       96.38128       13.93881
O         10.99948       96.09633       11.81740
H         10.96348       93.42611       11.30651
H          8.37962       93.32490       12.48507
H         10.43814       93.81636       13.78227
H          9.15096       95.04537       14.04345
H         11.43027       96.12178       14.92739
H         12.19819       97.14400       13.69475
N          8.45414       95.66919       10.19259
C          7.65401       96.69781        9.54557
C          8.44172       97.95036        9.19380
O          7.85751       98.82111        8.56519
H          9.21826       95.27153        9.63941
H          6.79535       97.00592       10.17945
H          7.23989       96.26159        8.61102
N          9.73798       98.14216        9.58702
C         10.50594       99.35416        9.30754
C         11.87803       99.05439        8.62296
O         12.00144       97.71217        8.26285
C         10.80054      100.10066       10.61989
C          9.56058      100.62598       11.30326
C          9.20790      100.17698       12.58718
C          8.76366      101.59974       10.67568
C          8.07964      100.69533       13.23155
C          7.63776      102.11728       11.32230
C          7.29343      101.66821       12.60491
O          6.21659      102.16721       13.24506
H         10.19858       97.42240       10.14265
H          9.91352      100.02974        8.65334
H         11.45726      100.97429       10.41329
H         11.35259       99.41245       11.29605
H          9.80806       99.43147       13.09394
H          9.01997      101.96957        9.69096
H          7.82055      100.34581       14.22304
H          7.03880      102.87233       10.82843
H          5.65500      102.85071       12.85193
N         12.02758       99.88693        7.42396
C         13.35496       99.86844        6.77080
C         14.06927      101.20525        6.99856
O         13.50343      102.25032        6.70637
C         13.13815       99.51765        5.26278
C         12.72795       98.01683        5.15545
C         14.38753       99.79714        4.40758
C         12.41091       97.52707        3.74251
H         11.67709      100.86181        7.57484
H         14.00595       99.06908        7.19355
H         12.32617      100.16483        4.86308
H         11.81850       97.83780        5.76402
H         13.54693       97.38032        5.56301
H         15.23013       99.16087        4.72427
H         14.18461       99.60765        3.33470
H         14.68197      100.86466        4.47424
H         11.56786       98.10704        3.31563
H         13.29434       97.59215        3.07695
H         12.11836       96.45742        3.78426
N         15.34538      101.22563        7.48520
C         16.10667      102.44398        7.76623
C         17.15962      102.67699        6.69266
O         17.14471      101.96990        5.70190
C         16.73657      102.34297        9.17157
O         17.80521      101.43224        9.19931
H         15.81801      100.32311        7.63062
H         15.43247      103.32847        7.76573
H         15.97007      102.08340        9.93627
H         17.13860      103.33198        9.47251
H         17.42044      100.52166        9.18636
N         18.09861      103.65832        6.80403
C         19.09110      103.94850        5.76777
C         19.95051      102.74266        5.41305
O         19.99575      102.37964        4.24661
C         19.99827      105.10179        6.21107
H         18.10018      104.23940        7.65616
H         18.55665      104.28021        4.84900
H         19.38906      106.00761        6.41430
H         20.55602      104.83421        7.13424
H         20.72894      105.34362        5.40952
N         20.66356      102.07923        6.36692
C         21.53989      100.94329        6.07525
C         20.79915       99.83651        5.35250
O         21.27548       99.36869        4.32706
C         22.13859      100.39183        7.37540
H         20.57307      102.39495        7.34466
H         22.38698      101.28204        5.43771
H         22.72377      101.18322        7.88995
H         21.33964      100.03507        8.06052
H         22.82237       99.54401        7.15258
N         19.60518       99.39365        5.82489
C         18.82141       98.33102        5.19957
C         18.53787       98.65021        3.73579
O         18.91583       97.86375        2.87864
C         17.51619       98.11821        5.99597
C         17.79736       97.56530        7.40598
C         16.54610       97.46338        8.22625
O         15.61119       96.77400        7.85293
O         16.46298       98.12032        9.39781
H         19.23069       99.86385        6.66339
H         19.39793       97.37931        5.22827
H         16.85951       97.39515        5.46386
H         16.99074       99.09124        6.07453
H         18.50656       98.22078        7.95255
H         18.25795       96.55865        7.31819
N         17.91151       99.79875        3.37073
C         17.67606      100.16187        1.99052
H         17.18073      101.15617        1.94189
H         18.64229      100.22726        1.44572
H         17.01949       99.41161        1.50370
H         17.61109      100.45146        4.09321
Ca        12.89752       96.51591       10.01346
O         13.93650       99.13423       11.42546
H         14.36260       98.69588       10.64885
H         14.07555      100.10079       11.26682
O         14.91921       96.51550       12.70446
H         15.46064       95.68793       12.66081
H         15.58300       97.23892       12.82862

Ca 1.0



