%chk=holoCaM.loop4.water3.frame352.chk
%nprocshared=20
%mem=10GB
%nosave
#b3lyp/svp scf=(tight,noincore,xqc) Test 
#IOP(5/87=12) Density=Current Pop=(MK,readradii) iop(6/33=2) iop(6/42=6)

holoCaM.loop4.water3.frame352 

   -3  1 
C         13.20908       37.17218       96.30232
C         13.15624       38.54993       95.71342
O         12.37235       38.75701       94.79828
H         13.94204       37.11213       97.13319
H         12.20516       36.91254       96.70428
H         13.48387       36.43670       95.51880
N         13.91381       39.56261       96.22642
C         13.77801       40.94433       95.78586
C         15.14022       41.61560       95.61417
O         15.90615       41.63212       96.57081
C         12.95035       41.68863       96.85416
C         12.45815       43.02926       96.39738
O         11.76438       43.80976       97.24621
O         12.62000       43.39025       95.24538
H         14.50954       39.36775       97.04654
H         13.20315       40.98233       94.83310
H         13.55117       41.79418       97.78341
H         12.04174       41.09638       97.09739
N         15.49381       42.23339       94.44676
C         16.75312       42.95938       94.25418
C         16.54197       44.45921       93.96924
O         17.52709       45.15510       93.79977
C         17.59634       42.31406       93.10142
C         16.92638       42.47450       91.70594
C         17.89261       40.83725       93.42048
C         17.80836       42.01639       90.54180
H         14.82685       42.20432       93.66531
H         17.36673       42.90530       95.18078
H         18.57071       42.85116       93.06826
H         16.71028       43.54717       91.52375
H         15.97089       41.91713       91.66603
H         18.58907       40.39623       92.67914
H         18.38010       40.75172       94.41396
H         16.95654       40.23898       93.42557
H         17.28268       42.20679       89.58147
H         18.76630       42.57841       90.53581
H         18.02165       40.93301       90.59854
N         15.28930       44.99931       93.83207
C         15.05207       46.34136       93.27554
C         13.88851       47.11597       93.90915
O         13.70163       48.26685       93.52599
C         14.79171       46.19317       91.75433
C         13.61776       45.29486       91.41836
O         12.88483       44.73834       92.40797
O         13.35657       45.05265       90.25254
H         14.49990       44.36947       93.93942
H         15.96277       46.96467       93.40567
H         15.70072       45.75352       91.29119
H         14.63480       47.19436       91.29615
N         13.04510       46.57895       94.83166
C         11.90927       47.28633       95.41167
C         10.79428       47.68019       94.44215
O          9.85071       48.30220       94.91046
H         13.22245       45.63427       95.18059
H         12.28568       48.20502       95.91045
H         11.45020       46.64170       96.19279
N         10.81317       47.39704       93.10496
C          9.78398       47.87847       92.18141
C          8.38070       47.35468       92.48272
O          7.44763       48.13830       92.37544
C         10.16887       47.69061       90.68914
C         10.40980       46.29094       90.20272
O         10.38614       45.24896       91.03975
O         10.67250       46.10070       89.02638
H         11.60613       46.87995       92.71136
H          9.73572       48.98641       92.28621
H         11.10129       48.26273       90.49194
H          9.35952       48.13341       90.06832
N          8.14593       46.06300       92.85537
C          6.80944       45.52970       93.11078
C          6.45380       44.36628       92.20008
O          5.35932       43.83800       92.34169
H          8.94393       45.42815       92.98243
H          6.02924       46.30964       92.97470
H          6.76073       45.18560       94.16549
N          7.31093       43.91712       91.24005
C          7.03316       42.82969       90.31259
C          8.05757       41.71745       90.49572
O          8.90581       41.81801       91.37340
C          7.10584       43.38021       88.87029
C          6.10125       44.51741       88.62122
C          6.13559       45.02369       87.19760
N          5.30852       46.02505       86.82124
O          6.90171       44.53688       86.37766
H          8.21833       44.37397       91.12621
H          6.02036       42.40112       90.48141
H          6.88198       42.56698       88.14933
H          8.13533       43.75475       88.67045
H          6.32809       45.36897       89.29849
H          5.07494       44.15101       88.83888
H          4.65623       46.44932       87.49670
H          5.31999       46.37680       85.85231
N          8.05015       40.62893       89.67602
C          9.02957       39.55183       89.74137
C          9.86227       39.57404       88.46622
O          9.30799       39.56892       87.37505
C          8.31949       38.19239       89.97282
C          9.32608       37.02781       89.98605
C          7.56327       38.20839       91.31343
H          7.32826       40.56119       88.94264
H          9.71712       39.69648       90.60051
H          7.59000       38.01255       89.15266
H          8.79852       36.06501       90.15487
H          9.85530       36.95124       89.01373
H         10.07717       37.16588       90.79279
H          6.79647       39.01069       91.32793
H          7.04604       37.23938       91.47813
H          8.26830       38.37886       92.15727
N         11.22177       39.57040       88.55365
C         12.14530       39.61993       87.42387
C         12.78080       38.25185       87.23530
O         12.49317       37.34902       88.00210
C         13.19185       40.72349       87.74496
C         14.32044       40.92252       86.76746
N         14.08248       41.31277       85.49601
O         15.47262       40.75917       87.14192
H         11.64193       39.48560       89.48966
H         11.60409       39.85937       86.48252
H         13.64200       40.49164       88.73717
H         12.66393       41.69168       87.81975
H         13.12100       41.47057       85.16429
H         14.86758       41.46235       84.84553
N         13.61407       38.00948       86.18894
C         14.29187       36.73575       85.95979
C         15.25581       36.38423       87.09348
O         15.21391       35.25065       87.55234
C         14.91102       36.68969       84.53696
C         15.77418       37.86616       84.12797
C         15.28849       38.77390       83.16523
C         17.05275       38.06916       84.66491
C         16.05585       39.86867       82.76542
C         17.82330       39.16763       84.26033
C         17.32375       40.07280       83.31210
O         18.05098       41.13694       82.91641
H         13.75057       38.76311       85.50496
H         13.52961       35.92245       85.93512
H         14.03493       36.67153       83.85025
H         15.45211       35.73383       84.36960
H         14.30665       38.64276       82.72678
H         17.45751       37.37424       85.38665
H         15.66113       40.55986       82.03072
H         18.80927       39.31481       84.68165
H         18.93350       41.31861       83.26877
N         16.09600       37.30809       87.64918
C         16.99792       37.00858       88.77358
C         16.26943       36.65864       90.07895
O         16.94657       36.37529       91.05840
C         17.91764       38.21452       89.08240
C         18.85280       38.58578       87.92733
C         19.76513       39.71027       88.32630
O         20.61910       39.55561       89.35685
O         19.74309       40.76661       87.71529
H         16.09133       38.25733       87.25343
H         17.64162       36.14591       88.49165
H         18.56080       37.95670       89.95386
H         17.28998       39.09062       89.35537
H         18.25751       38.89982       87.05117
H         19.47304       37.70745       87.64677
N         14.91306       36.66798       90.18279
C         14.17764       36.43939       91.41792
C         13.43472       35.11978       91.33212
O         13.61878       34.28565       92.20726
C         13.20258       37.60952       91.64861
C         13.93413       38.96411       91.71789
C         12.99733       40.12727       91.88072
O         13.48917       41.37559       91.84852
O         11.79653       39.96320       92.01514
H         14.35268       36.88388       89.35961
H         14.86300       36.39093       92.29424
H         12.63793       37.43664       92.58908
H         12.47576       37.64631       90.80953
H         14.49159       39.12617       90.77112
H         14.65851       38.96578       92.56091
N         12.60437       34.84801       90.28562
C         11.89236       33.59850       90.12135
H         10.80632       33.80660       90.02686
H         12.24220       33.10019       89.19204
H         12.04929       32.90531       90.97318
H         12.48251       35.54452       89.54417
Ca        11.28793       43.13773       92.45203
O         10.21561       41.05038       94.69481
H         10.18013       40.37741       93.97116
H          9.26713       41.19864       94.93498
O         11.36766       42.58964       89.71804
H         11.09625       43.26522       89.04860
H         12.33431       42.75265       89.85798
O          9.51262       43.92012       95.03213
H          8.93169       44.25602       95.75922
H         10.20643       44.61799       94.92491

Ca 1.0



