%chk=holoCaM-CaMKII.loop2.water2.frame317.chk
%nprocshared=20
%mem=10GB
%nosave
#b3lyp/svp scf=(tight,noincore,xqc) Test 
#IOP(5/87=12) Density=Current Pop=(MK,readradii) iop(6/33=2) iop(6/42=6)

holoCaM-CaMKII.loop2.water2.frame317 

   -2  1 
C         63.85773       20.14170       56.16552
C         63.76675       18.91778       55.30115
O         63.54566       17.83010       55.81143
H         63.07505       20.86776       55.85536
H         63.70064       19.88923       57.23522
H         64.85414       20.61585       56.04517
N         63.90605       19.03940       53.95535
C         63.74553       17.93148       53.02184
C         64.79225       16.84622       53.22321
O         65.97781       17.14285       53.17236
C         63.80614       18.46831       51.58083
C         63.54822       17.37824       50.59120
O         62.41305       16.66059       50.67346
O         64.36860       17.12841       49.72312
H         64.08334       19.98394       53.57704
H         62.73119       17.50046       53.16920
H         64.79313       18.94149       51.38239
H         63.01802       19.23943       51.44953
N         64.40340       15.54837       53.40565
C         65.33222       14.43505       53.57214
C         65.21920       13.38018       52.46447
O         66.03881       12.47177       52.47260
C         65.08102       13.78431       54.93896
H         63.39685       15.34174       53.42478
H         66.37802       14.81019       53.55546
H         64.05011       13.37151       54.98887
H         65.79911       12.95789       55.12494
H         65.19638       14.53721       55.74803
N         64.23102       13.39211       51.51425
C         64.07508       12.32504       50.50988
C         63.69711       12.81083       49.10873
O         63.62471       11.98005       48.21344
C         63.02139       11.31514       51.00534
C         61.65696       11.90837       51.21233
O         61.38431       13.17986       50.86982
O         60.79548       11.24446       51.76534
H         63.49788       14.10466       51.59639
H         65.03275       11.76897       50.41150
H         63.37184       10.92993       51.98759
H         62.93701       10.45330       50.30961
N         63.39955       14.11194       48.84270
C         62.97626       14.59589       47.54158
C         61.68515       13.95716       47.07769
O         61.69321       13.35661       46.01216
H         63.46902       14.80394       49.58733
H         63.78527       14.40968       46.80139
H         62.81309       15.69446       47.59662
N         60.53131       14.06526       47.80678
C         59.25059       13.51580       47.34671
C         58.18650       14.59335       47.11500
O         57.15451       14.26116       46.54937
C         58.74612       12.39933       48.29344
C         58.35286       12.85115       49.67720
N         57.90083       11.95321       50.58083
O         58.43044       14.02489       49.99079
H         60.57183       14.56102       48.70943
H         59.40119       13.03151       46.35803
H         59.54198       11.62875       48.38761
H         57.85437       11.91845       47.83655
H         57.82231       10.95489       50.34133
H         57.62885       12.25837       51.52520
N         58.35553       15.89040       47.51533
C         57.41537       16.96451       47.21600
C         56.69828       17.52593       48.43219
O         55.97287       18.49648       48.26073
H         59.19838       16.15445       48.03413
H         56.62940       16.62939       46.50604
H         57.98532       17.77745       46.71771
N         56.77007       16.93859       49.66119
C         55.97210       17.36002       50.81274
C         56.82553       17.55747       52.05876
O         58.01513       17.27127       52.03875
C         54.90350       16.26389       51.10266
C         53.88749       16.14793       49.96600
O         55.51281       15.01032       51.28791
H         57.34075       16.09482       49.77025
H         55.44938       18.32034       50.60800
H         54.30427       16.52139       52.00475
H         55.91754       15.01447       52.19303
H         54.38119       15.86191       49.01417
H         53.13381       15.37092       50.21765
H         53.35887       17.11525       49.82856
N         56.22858       17.95731       53.21904
C         56.86679       17.91162       54.52773
C         56.24867       16.73294       55.25039
O         55.03170       16.66169       55.36951
C         56.68940       19.23740       55.32936
C         57.41595       20.40243       54.61004
C         57.23035       19.06606       56.76822
C         57.29736       21.75141       55.32821
H         55.21997       18.17701       53.20089
H         57.95937       17.72416       54.43227
H         55.60404       19.47162       55.40261
H         56.98694       20.51948       53.59243
H         58.49638       20.16613       54.50876
H         57.04448       19.96825       57.38151
H         56.70761       18.24475       57.29756
H         58.31894       18.85035       56.75695
H         56.23159       22.03076       55.46093
H         57.80043       21.73205       56.31724
H         57.80421       22.53550       54.72801
N         57.04993       15.76683       55.76632
C         56.55475       14.56123       56.41915
C         56.59872       14.75518       57.90918
O         56.93706       15.84411       58.35426
C         57.44900       13.37678       56.02911
C         57.70019       13.37186       54.56202
O         58.90283       13.81887       54.17946
O         56.82787       13.10685       53.75201
H         58.07081       15.90148       55.72012
H         55.50737       14.35082       56.10817
H         57.06453       12.39496       56.37608
H         58.43740       13.54098       56.51745
N         56.24563       13.75504       58.75840
C         56.23626       13.96579       60.19309
C         57.65203       14.22458       60.72605
O         57.82109       15.24889       61.37003
C         55.47679       12.83984       60.93066
C         54.95877       13.31448       62.26412
C         53.97318       14.32096       62.30536
C         55.42066       12.75732       63.46470
C         53.46408       14.76380       63.52537
C         54.90982       13.20788       64.68707
C         53.93272       14.20872       64.71691
H         55.92053       12.85507       58.37211
H         55.62637       14.88287       60.35035
H         56.09010       11.93170       61.04210
H         54.57684       12.55080       60.34419
H         53.58908       14.75686       61.39022
H         56.17514       11.98112       63.45456
H         52.70382       15.53459       63.54344
H         55.26945       12.77936       65.61231
H         53.53527       14.55311       65.66205
N         58.73590       13.40570       60.47731
C         60.09275       13.68140       60.95930
C         60.73657       14.96175       60.44131
O         61.85040       15.25094       60.85853
C         60.92441       12.50387       60.43039
C         59.90308       11.39757       60.36693
C         58.70200       12.13508       59.78075
H         60.05179       13.68267       62.07139
H         61.21881       12.70087       59.37132
H         61.84752       12.28968       61.01147
H         60.22311       10.50242       59.79287
H         59.66390       11.09415       61.41212
H         58.83739       12.32113       58.69297
H         57.80745       11.52023       59.95181
N         60.12842       15.75197       59.51061
C         60.73546       16.94780       58.93966
C         60.02297       18.20279       59.41587
O         60.60260       19.27467       59.30954
C         60.67732       16.87064       57.40129
C         61.34281       15.59914       56.84937
C         61.17893       15.45645       55.36342
O         61.60781       14.45702       54.81237
O         60.53649       16.38897       54.63360
H         59.20667       15.48456       59.15430
H         61.79491       17.02934       59.26965
H         61.14791       17.77271       56.95373
H         59.60731       16.85836       57.10662
H         60.87138       14.70504       57.30974
H         62.42494       15.60230       57.09884
N         58.76654       18.15960       59.94440
C         58.09232       19.33248       60.44777
H         57.06779       19.05811       60.78097
H         58.65141       19.73642       61.31706
H         58.01548       20.10440       59.65523
H         58.24905       17.27644       59.98944
Ca        59.92286       14.10036       52.24498
O         59.97161       17.56969       49.91514
H         60.61046       17.69714       49.16944
H         59.43209       18.39808       49.92268
O         60.44732       18.67140       52.59640
H         60.80621       19.58109       52.44968
H         60.04128       18.70871       53.49681

Ca 1.0



