%chk=holoCaM-CaMKII.loop4.water2.frame216.chk
%nprocshared=20
%mem=10GB
%nosave
#b3lyp/svp scf=(tight,noincore,xqc) Test 
#IOP(5/87=12) Density=Current Pop=(MK,readradii) iop(6/33=2) iop(6/42=6)

holoCaM-CaMKII.loop4.water2.frame216 

   -3  1 
C         32.67246       66.74024       43.22237
C         33.33654       67.06682       41.91434
O         34.01812       66.21462       41.36519
H         31.97756       65.88558       43.09177
H         33.44571       66.47414       43.97369
H         32.09633       67.60643       43.61343
N         33.18569       68.30016       41.35988
C         33.83104       68.71948       40.11992
C         35.34367       68.67349       40.26217
O         35.86301       69.21715       41.22744
C         33.38405       70.15204       39.77337
C         34.05951       70.66415       38.53744
O         33.92353       70.09018       37.46925
O         34.83497       71.76039       38.61459
H         32.58753       68.98095       41.85443
H         33.50526       68.05588       39.28883
H         33.62835       70.83223       40.61838
H         32.28321       70.17057       39.61792
N         36.11180       68.08345       39.29805
C         37.56717       68.00406       39.37098
C         38.18947       68.87511       38.28644
O         38.89964       69.80986       38.63122
C         38.06888       66.52521       39.27194
C         37.32654       65.61641       40.28628
C         39.59664       66.47016       39.47456
C         37.76960       64.14960       40.25496
H         35.64220       67.70167       38.46835
H         37.90869       68.39788       40.35449
H         37.85262       66.12976       38.25809
H         36.24538       65.63242       40.03498
H         37.45240       66.00262       41.32006
H         39.86664       66.81527       40.49502
H         39.98448       65.44243       39.32467
H         40.11769       67.10700       38.73011
H         37.70181       63.73598       39.23076
H         38.81204       64.03632       40.61349
H         37.11714       63.55045       40.92462
N         38.01684       68.60253       36.95748
C         38.73164       69.33747       35.91261
C         38.35807       70.81516       35.81043
O         39.11078       71.54565       35.18085
C         38.62893       68.63044       34.54083
C         37.23323       68.49207       33.98913
O         37.07073       67.95447       32.90569
O         36.16006       68.92790       34.67421
H         37.44140       67.79210       36.69120
H         39.80943       69.30322       36.19130
H         39.05656       67.60857       34.63909
H         39.24846       69.18625       33.80343
N         37.23795       71.33445       36.39155
C         36.94571       72.76407       36.42390
C         35.71102       73.16807       35.64207
O         35.30708       74.31533       35.77120
H         36.57464       70.70311       36.86221
H         37.79052       73.37294       36.03747
H         36.80936       73.04620       37.48908
N         35.08635       72.32282       34.77210
C         33.93524       72.72604       33.95848
C         32.63814       72.90633       34.75488
O         31.63259       73.25424       34.15071
C         33.74908       71.75979       32.76537
C         33.47455       70.32246       33.11447
O         33.34751       69.50894       32.21405
O         33.39151       69.90972       34.39305
H         35.49970       71.39466       34.61569
H         34.17130       73.70748       33.48861
H         34.68111       71.78632       32.15886
H         32.92183       72.13324       32.12269
N         32.58368       72.73689       36.10674
C         31.39352       72.98606       36.90409
C         30.31033       71.93678       36.78093
O         29.31309       72.08399       37.47352
H         33.43596       72.49805       36.62033
H         30.99120       73.99492       36.67021
H         31.69025       72.98333       37.97647
N         30.43448       70.83378       35.98635
C         29.45615       69.74939       35.98004
C         30.14174       68.45831       36.47652
O         31.13804       68.79537       37.39674
C         28.89426       69.56194       34.55998
C         28.15290       70.82206       34.08199
C         27.69341       70.74062       32.64710
N         27.03778       71.78820       32.09715
O         27.91875       69.74709       31.97062
H         31.27321       70.71208       35.40677
H         28.61806       69.97649       36.67613
H         28.19446       68.69840       34.52943
H         29.73997       69.35395       33.87131
H         28.82689       71.70134       34.15868
H         27.27073       70.99121       34.73711
H         26.84347       72.63466       32.65246
H         26.72805       71.75706       31.11469
N         29.17148       67.55598       37.11464
C         29.74465       66.29436       37.63801
C         29.53140       65.15133       36.64715
O         28.40986       64.92960       36.21205
C         29.13923       65.98823       39.03580
C         29.78172       64.73454       39.66189
C         29.36641       67.17544       39.99306
H         28.31623       67.39994       36.53315
H         30.83256       66.40660       37.83015
H         28.04440       65.82106       38.93883
H         30.88003       64.87086       39.78042
H         29.34629       64.53674       40.66499
H         29.60052       63.83932       39.03529
H         28.87663       68.09468       39.60935
H         28.93254       66.95738       40.99222
H         30.45284       67.38039       40.11810
N         30.57490       64.34751       36.30008
C         30.48777       63.21711       35.37770
C         30.48579       61.92543       36.18155
O         30.58348       61.99592       37.39458
C         31.67721       63.32196       34.39018
C         31.74193       62.24127       33.34175
N         30.74378       62.08053       32.44338
O         32.71712       61.50658       33.29607
H         31.46998       64.49624       36.77973
H         29.52702       63.25080       34.82002
H         32.62297       63.30468       34.97734
H         31.62133       64.29931       33.86524
H         29.91547       62.69177       32.45916
H         30.80091       61.33787       31.73046
N         30.29945       60.70836       35.59730
C         30.20858       59.47817       36.37623
C         31.51431       59.17137       37.09385
O         31.49234       58.97904       38.30092
C         29.81613       58.28109       35.48399
C         29.53768       57.06329       36.33668
C         28.46153       57.07210       37.24342
C         30.35186       55.92279       36.25246
C         28.21174       55.96665       38.05807
C         30.10117       54.81683       37.07250
C         29.03095       54.83748       37.98021
O         28.78173       53.78295       38.78216
H         30.15182       60.65617       34.58046
H         29.39601       59.61468       37.12377
H         30.63167       58.08607       34.75305
H         28.89579       58.51630       34.90625
H         27.81491       57.93705       37.32359
H         31.18762       55.89399       35.56476
H         27.38244       55.99164       38.75417
H         30.74192       53.94709       37.00567
H         29.32858       52.98493       38.76843
N         32.68966       59.10754       36.40217
C         33.97762       58.77987       37.01636
C         34.26098       59.66785       38.21258
O         34.63393       59.17092       39.26601
C         35.13122       58.86047       35.97381
C         35.44620       60.28093       35.45146
C         36.51594       60.32050       34.39480
O         37.05544       59.30037       33.99621
O         36.88774       61.50953       33.88228
H         32.66396       59.31216       35.39179
H         33.94212       57.72423       37.36605
H         34.86543       58.20389       35.11693
H         36.05883       58.45882       36.43843
H         35.81545       60.90380       36.29039
H         34.53198       60.74010       35.02561
N         34.06787       61.00584       38.10728
C         34.34371       61.96679       39.16291
C         33.48222       61.67478       40.38190
O         34.01475       61.56311       41.47701
C         34.11904       63.39489       38.62338
C         35.05099       63.69562       37.41776
C         34.83394       65.07949       36.92109
O         35.73589       65.89479       36.92044
O         33.61409       65.42508       36.50062
H         33.68752       61.35295       37.21568
H         35.41557       61.90495       39.45660
H         34.33105       64.12339       39.43613
H         33.05585       63.51556       38.31971
H         34.85006       63.02513       36.56281
H         36.10781       63.56442       37.71478
N         32.14343       61.47898       40.25041
C         31.27807       61.13923       41.35786
H         30.24445       60.96416       40.98561
H         31.63237       60.20643       41.84651
H         31.25670       61.96850       42.09390
H         31.72730       61.53006       39.31929
Ca        32.84419       67.50035       36.68265
O         31.55918       67.04731       33.36876
H         31.59513       68.02841       33.48345
H         32.03928       66.88249       32.51874
O         34.27719       65.66466       33.59148
H         35.16283       66.10512       33.57109
H         34.48130       64.69687       33.63247

Ca 1.0



