%chk=holoCaM.loop2.water2.frame450.chk
%nprocshared=20
%mem=10GB
%nosave
#b3lyp/svp scf=(tight,noincore,xqc) Test 
#IOP(5/87=12) Density=Current Pop=(MK,readradii) iop(6/33=2) iop(6/42=6)

holoCaM.loop2.water2.frame450 

   -2  1 
C         13.47640       91.43896       58.03380
C         14.04175       92.82483       57.99169
O         14.64865       93.18103       56.99093
H         12.37294       91.49465       58.13870
H         13.71526       90.89232       57.09522
H         13.90474       90.88185       58.89171
N         13.87985       93.66872       59.05322
C         14.36496       95.04110       59.04760
C         15.44929       95.22805       60.10559
O         15.18277       95.05362       61.28650
C         13.18444       96.01795       59.25330
C         13.61445       97.44629       59.06733
O         12.82819       98.35796       59.23063
O         14.87495       97.69825       58.68517
H         13.38394       93.32642       59.89081
H         14.80568       95.26522       58.05544
H         12.76152       95.87970       60.27239
H         12.38715       95.80428       58.50833
N         16.71781       95.56152       59.72389
C         17.84890       95.67603       60.64174
C         17.81705       96.89332       61.56644
O         18.68601       96.96226       62.42514
C         19.15180       95.73468       59.82852
H         16.90633       95.64779       58.71507
H         17.87728       94.75160       61.26006
H         19.16557       96.64583       59.18981
H         20.03831       95.75218       60.49712
H         19.23172       94.84224       59.17163
N         16.91015       97.90736       61.44045
C         16.93311       99.11113       62.27917
C         15.63875       99.30057       63.05852
O         15.57601      100.23089       63.85155
C         17.11994      100.35818       61.39233
C         18.35143      100.31720       60.53226
O         18.22384      100.21717       59.19419
O         19.46139      100.38000       61.03500
H         16.20456       97.85303       60.69868
H         17.76551       99.05962       63.01380
H         17.15171      101.28518       62.00481
H         16.22958      100.43782       60.74133
N         14.54560       98.51121       62.85445
C         13.26793       98.74054       63.50182
C         12.71900      100.11204       63.17670
O         12.36967      100.83453       64.09964
H         14.58299       97.73078       62.18590
H         13.36568       98.61148       64.60260
H         12.54437       97.98322       63.13049
N         12.63029      100.54094       61.88209
C         12.07168      101.84022       61.50351
C         10.88967      101.71733       60.54041
O         10.25537      102.72967       60.27906
C         13.17319      102.76624       60.94227
C         13.70114      102.35890       59.58652
N         13.64917      103.21812       58.54170
O         14.19615      101.25589       59.43027
H         13.00166       99.92390       61.14954
H         11.68342      102.34106       62.41680
H         14.01662      102.79375       61.66655
H         12.76465      103.79777       60.87322
H         13.24848      104.16137       58.64755
H         14.02623      102.94491       57.62251
N         10.53447      100.52620       59.97180
C          9.36843      100.33947       59.12540
C          9.69863       99.97139       57.69008
O          8.77894       99.55916       56.99724
H         11.07914       99.68113       60.16488
H          8.71575      101.23737       59.10061
H          8.77384       99.51628       59.57862
N         10.93518      100.16780       57.13685
C         11.22381       99.89158       55.72259
C         12.46581       99.03662       55.55125
O         13.21865       98.87265       56.49878
C         11.40798      101.21689       54.93965
C         10.09936      102.00863       54.81641
O         12.42052      102.00768       55.51401
H         11.67777      100.59044       57.71424
H         10.38436       99.32650       55.26182
H         11.71503      100.98348       53.89706
H         12.04455      102.45340       56.31798
H          9.33962      101.39880       54.28311
H          9.70282      102.28919       55.81443
H         10.28030      102.93489       54.23021
N         12.74270       98.46169       54.33979
C         13.95705       97.69557       54.07876
C         14.72368       98.31138       52.91377
O         14.22269       98.34928       51.79912
C         13.67669       96.16869       53.88890
C         12.75110       95.82121       52.69236
C         13.12511       95.58819       55.20496
C         12.64170       94.31388       52.43756
H         12.06496       98.57415       53.57031
H         14.62368       97.75336       54.96213
H         14.66127       95.68599       53.70407
H         13.16707       96.24503       51.76006
H         11.73549       96.24240       52.84972
H         12.12528       96.01023       55.43847
H         13.04905       94.48406       55.16517
H         13.81351       95.82606       56.03946
H         12.03186       94.13215       51.52782
H         13.65069       93.88401       52.27648
H         12.15530       93.78142       53.27786
N         15.96751       98.83050       53.11826
C         16.81468       99.37266       52.05273
C         17.25476       98.22296       51.12492
O         16.87843       97.09439       51.39245
C         18.02173      100.08207       52.72736
C         18.80528      101.06224       51.89199
O         19.88010      101.66394       52.43508
O         18.43870      101.39716       50.77821
H         16.32663       98.84074       54.08186
H         16.22384      100.13653       51.50067
H         18.69417       99.30968       53.15798
H         17.64149      100.69869       53.57101
N         18.03736       98.40803       50.02163
C         18.45317       97.31099       49.14614
C         19.28641       96.25476       49.88269
O         18.91397       95.09458       49.77739
C         19.17574       97.84922       47.88603
C         19.58199       96.74825       46.93049
C         18.61567       95.91094       46.34305
C         20.93812       96.55447       46.61158
C         19.00156       94.89869       45.45867
C         21.31854       95.54198       45.72548
C         20.35147       94.71445       45.14999
H         18.33118       99.35321       49.76492
H         17.53144       96.81354       48.76888
H         20.06309       98.44075       48.16660
H         18.49384       98.54375       47.34923
H         17.56445       96.04009       46.56526
H         21.70249       97.18553       47.04773
H         18.25322       94.25757       45.01083
H         22.36405       95.39939       45.48434
H         20.64803       93.93154       44.46387
N         20.39960       96.53055       50.64177
C         21.17248       95.51559       51.36059
C         20.30604       94.59501       52.19730
O         20.43625       93.38267       52.11131
C         22.07815       96.33972       52.28967
C         22.31965       97.57747       51.46652
C         20.92912       97.85502       50.90500
H         21.77903       94.93793       50.62772
H         21.51218       96.68257       53.18626
H         22.98547       95.80403       52.64120
H         22.77460       98.43101       52.01248
H         22.98772       97.28930       50.62315
H         20.27273       98.35499       51.64737
H         21.05642       98.48962       50.01468
N         19.36365       95.14152       53.00823
C         18.44116       94.39191       53.85198
C         17.64460       93.40234       53.01962
O         17.62597       92.22837       53.36202
C         17.52238       95.39132       54.58021
C         18.32804       96.24519       55.58142
C         17.47764       97.33182       56.14211
O         17.82760       98.49905       56.06449
O         16.30699       97.02249       56.71060
H         19.27585       96.16895       52.98591
H         19.00169       93.82024       54.62593
H         16.72859       94.85002       55.14212
H         17.03083       96.04433       53.82680
H         19.21591       96.71847       55.11277
H         18.68332       95.59118       56.40631
N         17.02047       93.79541       51.87626
C         16.32186       92.89269       50.98504
H         15.29068       93.25849       50.81716
H         16.84632       92.87298       50.00619
H         16.27566       91.85691       51.38023
H         17.08661       94.77491       51.58793
Ca        16.21924       99.48115       58.46080
O         15.62579      101.33937       55.48623
H         16.06130      102.18776       55.21951
H         14.84477      101.26351       54.88348
O         16.78672      102.61802       58.00068
H         17.73040      102.54940       57.70955
H         16.83589      102.78247       58.97577

Ca 1.0



