%chk=holoCaM.loop3.water2.frame351.chk
%nprocshared=20
%mem=10GB
%nosave
#b3lyp/svp scf=(tight,noincore,xqc) Test 
#IOP(5/87=12) Density=Current Pop=(MK,readradii) iop(6/33=2) iop(6/42=6)

holoCaM.loop3.water2.frame351 

   0  1 
C          3.03101       30.08797       80.49797
C          3.01512       30.97418       79.29391
O          2.29383       31.96222       79.29898
H          3.31601       30.68468       81.38837
H          2.02002       29.65483       80.64739
H          3.75938       29.25924       80.37457
N          3.76224       30.65795       78.20063
C          3.76790       31.45588       76.99248
C          2.84782       30.80969       75.98774
O          3.29859       30.10329       75.09615
C          5.20508       31.61876       76.47527
C          5.27437       32.64783       75.39860
O          6.36382       33.02697       75.00919
O          4.16871       33.30636       75.01404
H          4.30780       29.78269       78.19989
H          3.37858       32.47826       77.20974
H          5.63157       30.65583       76.12414
H          5.83556       31.99704       77.30659
N          1.50734       30.98303       76.12522
C          0.52956       30.34229       75.26091
C          0.66478       30.84634       73.83561
O          0.85716       30.02574       72.94887
C         -0.90117       30.50823       75.81667
C         -0.99725       29.90240       77.23551
C         -2.43829       29.80268       77.74103
C         -2.51969       29.33234       79.20816
N         -1.84969       28.04930       79.43866
H          1.17764       31.58285       76.89576
H          0.72221       29.24499       75.26492
H         -1.58891       29.95321       75.14152
H         -1.21114       31.57608       75.83863
H         -0.40961       30.51528       77.95033
H         -0.57077       28.87664       77.21332
H         -2.99649       29.09595       77.08880
H         -2.92631       30.79913       77.67834
H         -3.59427       29.23821       79.47949
H         -2.06636       30.10138       79.87232
H         -2.03941       27.73912       80.41904
H         -2.20507       27.32310       78.77616
H         -0.81427       28.15412       79.33750
N          0.62991       32.18181       73.53949
C          0.82538       32.68176       72.17330
C          2.16808       32.26494       71.56739
O          2.31050       32.35133       70.35520
C          0.65422       34.21554       72.07200
C          1.67275       34.99563       72.86590
O          1.70582       34.91613       74.20955
O          2.45175       35.73927       72.29297
H          0.45786       32.84467       74.30813
H          0.02796       32.21619       71.55220
H         -0.36114       34.50642       72.41424
H          0.74018       34.50274       70.99952
N          3.18539       31.78936       72.33944
C          4.42587       31.25099       71.81385
C          5.20732       32.25496       71.01146
O          5.46098       31.98687       69.84551
H          3.07074       31.77164       73.35604
H          4.19136       30.36460       71.18264
H          5.06164       30.90408       72.65715
N          5.63900       33.42501       71.56725
C          6.42445       34.40334       70.81576
C          7.81532       34.61232       71.41644
O          8.56572       35.41935       70.88607
C          5.59711       35.69804       70.62631
C          5.59286       36.66981       71.77759
N          5.87762       37.97765       71.56586
O          5.30051       36.29235       72.89553
H          5.39193       33.62982       72.54691
H          6.59142       34.02365       69.78672
H          4.54977       35.39976       70.39826
H          5.97938       36.23588       69.73462
H          6.08459       38.32810       70.61919
H          5.85830       38.65560       72.34007
N          8.22985       33.91471       72.51750
C          9.54063       34.04332       73.12977
C          9.49453       34.85153       74.40832
O         10.51630       34.92089       75.07694
H          7.59701       33.24568       72.96884
H         10.26754       34.53566       72.44880
H          9.92645       33.02075       73.33880
N          8.38747       35.57418       74.76130
C          8.36358       36.49635       75.88925
C          7.06685       36.31498       76.68637
O          6.03081       36.96227       75.99658
C          8.45982       37.93787       75.33800
C          9.78526       38.11695       74.67188
C          9.90212       38.00687       73.27805
C         10.92560       38.33453       75.45442
C         11.15769       38.09649       72.67605
C         12.17663       38.44076       74.85024
C         12.29856       38.31208       73.45847
O         13.50581       38.38509       72.86633
H          7.56444       35.57252       74.14369
H          9.22486       36.30149       76.56741
H          8.32728       38.70847       76.12887
H          7.64742       38.08586       74.59156
H          9.02817       37.81788       72.66486
H         10.84039       38.41872       76.53166
H         11.24322       37.98556       71.60299
H         13.04894       38.61048       75.46728
H         14.31709       38.51405       73.37762
N          7.20153       36.91499       78.01780
C          5.94535       36.90895       78.79115
C          5.83196       38.21207       79.53929
O          6.82272       38.92040       79.69361
C          5.74590       35.64444       79.69514
C          6.74749       35.59776       80.88226
C          5.78459       34.36359       78.84375
C          6.60974       34.35450       81.76523
H          8.00508       36.51421       78.55013
H          5.08880       36.93164       78.08787
H          4.72512       35.70078       80.13160
H          6.56690       36.48897       81.52190
H          7.79675       35.63153       80.53005
H          5.48985       33.47716       79.44277
H          5.05718       34.43574       78.00957
H          6.79852       34.18942       78.42800
H          7.29908       34.43984       82.63160
H          5.57072       34.24521       82.14002
H          6.90165       33.44159       81.20441
N          4.61932       38.62635       79.97406
C          4.38276       39.87735       80.66824
C          3.81254       39.59337       82.03343
O          3.62934       38.42940       82.37350
C          3.41075       40.73701       79.83533
O          2.18437       40.07435       79.67927
H          3.80467       38.02411       79.78343
H          5.32774       40.44978       80.80074
H          3.86098       40.92296       78.83507
H          3.24441       41.71377       80.33965
H          1.58195       40.70688       79.20848
N          3.49167       40.60024       82.87865
C          2.78909       40.38020       84.13204
C          1.39257       39.83822       83.85318
O          0.98262       38.89860       84.51556
C          2.71334       41.67699       84.93587
H          3.71998       41.57002       82.59910
H          3.35640       39.65860       84.76513
H          3.74586       42.03209       85.14975
H          2.16727       42.46602       84.37928
H          2.20819       41.49084       85.90776
N          0.62198       40.36567       82.85030
C         -0.71467       39.85968       82.52763
C         -0.71786       38.38794       82.12325
O         -1.76719       37.76374       82.20402
C         -1.35018       40.69011       81.40513
H          1.00051       41.15185       82.30108
H         -1.33658       39.96992       83.44257
H         -0.74766       40.60548       80.47402
H         -2.38222       40.33782       81.19317
H         -1.39824       41.75989       81.69939
N          0.40561       37.76954       81.66726
C          0.48527       36.34152       81.37659
C          0.78032       35.57572       82.65329
O          0.16536       34.54386       82.88056
C          1.55941       36.06346       80.30665
C          1.14720       36.66271       78.94826
C          2.17270       36.40534       77.88444
O          2.68032       37.33918       77.28421
O          2.51135       35.14300       77.56200
H          1.26238       38.32720       81.55469
H         -0.47123       35.96444       80.94881
H          1.67291       34.96446       80.17584
H          2.53164       36.46513       80.64968
H          0.98453       37.75703       79.04517
H          0.19220       36.19722       78.62072
N          1.68472       36.04439       83.55666
C          1.97672       35.36901       84.80005
H          2.68850       35.97837       85.39943
H          1.04552       35.23886       85.39110
H          2.43738       34.38159       84.59337
H          2.16137       36.93232       83.38040
Ca         4.57929       35.43290       75.29146
O          1.89324       38.02144       74.32522
H          2.07345       38.89107       74.76142
H          1.27829       38.24237       73.58181
O          4.60298       39.12005       75.19776
H          5.01954       39.29811       76.07812
H          5.36409       39.07298       74.56801

Ca 1.0



