%chk=holoCaM-CaMKII.loop2.water2.frame469.chk
%nprocshared=20
%mem=10GB
%nosave
#b3lyp/svp scf=(tight,noincore,xqc) Test 
#IOP(5/87=12) Density=Current Pop=(MK,readradii) iop(6/33=2) iop(6/42=6)

holoCaM-CaMKII.loop2.water2.frame469 

   -2  1 
C         62.97148       53.24307       79.62907
C         62.83927       54.32566       80.66517
O         63.83101       54.73684       81.24363
H         62.36805       52.35862       79.91932
H         62.59507       53.62506       78.65363
H         64.03056       52.93821       79.49347
N         61.61949       54.87191       80.90128
C         61.38594       56.03941       81.74735
C         61.55335       55.78229       83.24013
O         60.92867       54.86824       83.75990
C         59.95718       56.54813       81.48930
C         59.67507       57.80077       82.25313
O         60.41690       58.76404       82.14919
O         58.60823       57.85452       83.07013
H         60.82701       54.49489       80.35676
H         62.07445       56.85056       81.42098
H         59.20976       55.77143       81.75995
H         59.84129       56.76632       80.40951
N         62.29754       56.64180       84.00439
C         62.38590       56.56917       85.46203
C         61.91532       57.85080       86.16980
O         61.91792       57.84670       87.39362
C         63.84565       56.30703       85.84969
H         62.81118       57.39945       83.53308
H         61.76709       55.72831       85.84333
H         64.48997       57.14853       85.51057
H         63.95010       56.20467       86.95143
H         64.20591       55.37022       85.37604
N         61.58015       58.99855       85.49953
C         61.36882       60.28481       86.17739
C         60.14385       61.07604       85.70257
O         59.91716       62.15269       86.23901
C         62.66604       61.11275       86.05352
C         63.18908       61.20911       84.64740
O         64.39510       60.68915       84.35026
O         62.53120       61.73630       83.77015
H         61.63671       59.01260       84.47404
H         61.20976       60.13263       87.26830
H         63.44711       60.60115       86.65678
H         62.52535       62.12771       86.48366
N         59.28532       60.61109       84.75386
C         58.06161       61.30407       84.36458
C         58.24402       62.60218       83.59222
O         57.22801       63.20995       83.28273
H         59.45190       59.68723       84.35070
H         57.45853       61.50442       85.27790
H         57.46321       60.63057       83.71309
N         59.46361       63.10291       83.23157
C         59.60852       64.37333       82.51617
C         59.12730       64.34255       81.05341
O         59.24040       65.36415       80.39004
C         61.04917       64.93113       82.61774
C         62.13203       64.22000       81.85555
N         63.34508       64.81113       81.75728
O         61.92640       63.15082       81.30304
H         60.30980       62.60655       83.52621
H         58.99919       65.12966       83.05917
H         61.35534       65.00243       83.68442
H         61.01746       65.96573       82.21290
H         63.52775       65.71735       82.21069
H         64.09504       64.39916       81.19560
N         58.55050       63.24038       80.48993
C         58.01923       63.20729       79.13157
C         59.05770       63.12523       78.02378
O         58.64514       63.07750       76.87244
H         58.38740       62.40814       81.06378
H         57.35457       64.08487       78.97697
H         57.39312       62.29466       79.02701
N         60.39840       63.08015       78.26643
C         61.41667       62.95947       77.22020
C         62.28012       61.72683       77.45268
O         62.08867       61.04664       78.45120
C         62.29193       64.23784       77.18983
C         61.46943       65.48372       76.82776
O         62.97578       64.41552       78.40720
H         60.72282       63.13000       79.23728
H         60.94253       62.84411       76.22029
H         63.05762       64.13820       76.39245
H         62.34049       64.79986       79.06492
H         60.99621       65.34962       75.83177
H         60.67301       65.66920       77.57940
H         62.13364       66.37242       76.78798
N         63.28103       61.39538       76.58550
C         64.18674       60.27159       76.80260
C         65.54331       60.84461       77.14811
O         66.20067       61.40715       76.28124
C         64.21983       59.33256       75.55563
C         62.82319       58.69853       75.32265
C         65.29891       58.23637       75.70170
C         62.69272       57.97943       73.97612
H         63.44797       61.99377       75.76124
H         63.85811       59.67215       77.67437
H         64.48078       59.95711       74.67176
H         62.04751       59.49297       75.32613
H         62.59168       57.98890       76.14706
H         65.36041       57.60306       74.79451
H         66.30540       58.68575       75.82515
H         65.08799       57.58942       76.57915
H         63.40063       57.13297       73.88028
H         61.66531       57.56979       73.87534
H         62.86521       58.69714       73.14563
N         65.99802       60.78666       78.43387
C         67.28976       61.32636       78.83557
C         68.41148       60.42775       78.34278
O         68.13127       59.37000       77.79840
C         67.37212       61.50768       80.36953
C         66.41693       62.56993       80.85330
O         65.09468       62.34343       80.98886
O         66.85434       63.66928       81.15358
H         65.38621       60.37937       79.15415
H         67.41401       62.33494       78.37995
H         68.39163       61.88196       80.59583
H         67.22696       60.55391       80.92400
N         69.71812       60.80007       78.47045
C         70.81590       59.96406       77.99915
C         70.94182       58.68193       78.82630
O         71.05194       57.63234       78.20972
C         72.15385       60.73391       77.93728
C         73.17867       59.98054       77.11610
C         72.96875       59.78510       75.73607
C         74.34936       59.47645       77.70544
C         73.90901       59.09752       74.96545
C         75.28642       58.78362       76.92962
C         75.06677       58.59536       75.56178
H         69.93366       61.72700       78.86887
H         70.58184       59.69847       76.94393
H         72.53636       60.93758       78.95359
H         71.99951       61.71663       77.44074
H         72.08052       60.17193       75.25176
H         74.53381       59.61231       78.76323
H         73.73958       58.95610       73.90523
H         76.18473       58.39234       77.38824
H         75.79367       58.06218       74.96266
N         70.89020       58.65568       80.20769
C         70.94733       57.43507       81.02110
C         69.90826       56.36409       80.70021
O         69.96284       55.30087       81.30406
C         70.68073       57.93524       82.44834
C         71.27660       59.31748       82.41579
C         70.79432       59.82306       81.06139
H         71.97172       57.01649       80.90812
H         69.58216       58.08180       82.58741
H         71.04780       57.26635       83.25568
H         71.00421       59.97128       83.27188
H         72.38423       59.20540       82.38237
H         69.73407       60.13508       81.10803
H         71.44369       60.66671       80.76898
N         68.93891       56.56945       79.76932
C         67.94558       55.59263       79.36459
C         68.29583       55.13067       77.96665
O         68.47620       53.93886       77.76345
C         66.55893       56.25028       79.38560
C         66.17832       56.74577       80.78691
C         64.94254       57.58895       80.75057
O         64.54331       58.20213       81.86883
O         64.38759       57.85647       79.69657
H         68.88349       57.47404       79.29490
H         67.93986       54.70820       80.04082
H         65.78254       55.54200       79.02280
H         66.58070       57.12522       78.69699
H         66.98155       57.40441       81.18310
H         66.05746       55.89263       81.48448
N         68.46073       56.03200       76.95761
C         68.87550       55.64581       75.63033
H         69.86044       55.13424       75.68065
H         68.12018       54.97263       75.17693
H         68.98377       56.55140       74.99489
H         68.32144       57.03331       77.13587
Ca        64.19764       60.34966       81.44096
O         59.94697       60.60239       80.24233
H         59.12426       60.32510       80.71682
H         59.90037       60.11366       79.38502
O         61.42361       57.96029       78.94906
H         61.56477       57.09997       78.48183
H         62.16385       58.53267       78.64026

Ca 1.0



