%chk=holoCaM.loop4.water3.frame219.chk
%nprocshared=20
%mem=10GB
%nosave
#b3lyp/svp scf=(tight,noincore,xqc) Test 
#IOP(5/87=12) Density=Current Pop=(MK,readradii) iop(6/33=2) iop(6/42=6)

holoCaM.loop4.water3.frame219 

   -3  1 
C         50.70037       75.11842       -8.64400
C         51.70252       74.05728       -8.30598
O         51.37174       72.88801       -8.44065
H         49.80110       74.99188       -8.00468
H         51.11375       76.13536       -8.48555
H         50.40309       75.01485       -9.70910
N         52.94525       74.38228       -7.84074
C         53.93543       73.36737       -7.49833
C         55.14020       74.00186       -6.80975
O         55.78594       74.84955       -7.41145
C         54.40230       72.61180       -8.76641
C         55.20983       71.39001       -8.43808
O         55.71231       70.73632       -9.33740
O         55.32856       70.96945       -7.16534
H         53.17273       75.37809       -7.69439
H         53.44657       72.65552       -6.80253
H         54.99759       73.30319       -9.40230
H         53.54309       72.25808       -9.36980
N         55.48983       73.63904       -5.53930
C         56.59319       74.23017       -4.79488
C         57.67529       73.20204       -4.42398
O         58.69630       73.62922       -3.90359
C         56.02607       75.04470       -3.57368
C         55.26221       74.24296       -2.47853
C         55.06304       76.13280       -4.09508
C         56.12451       73.29844       -1.65269
H         54.93061       72.93853       -5.05596
H         57.11605       74.96754       -5.44276
H         56.87263       75.57242       -3.08143
H         54.40745       73.68385       -2.91308
H         54.84349       74.97057       -1.74739
H         55.56631       76.78117       -4.84153
H         54.16392       75.67667       -4.56561
H         54.71397       76.78038       -3.26170
H         56.49131       72.47056       -2.27221
H         56.97412       73.84945       -1.19481
H         55.51318       72.85421       -0.83842
N         57.53171       71.84956       -4.63239
C         58.54426       70.85372       -4.24109
C         58.88224       69.80991       -5.32445
O         59.74541       68.98364       -5.06119
C         58.12450       70.15518       -2.92260
C         56.81104       69.42194       -2.95608
O         56.13584       69.37818       -3.96811
O         56.36788       68.81166       -1.84112
H         56.63957       71.50379       -5.00160
H         59.50013       71.37070       -4.00633
H         58.06629       70.91941       -2.12204
H         58.91594       69.43685       -2.61924
N         58.28448       69.77600       -6.55277
C         58.64256       68.82416       -7.60901
C         58.30397       67.35132       -7.35539
O         58.63692       66.53702       -8.20434
H         57.60175       70.50011       -6.79067
H         59.73276       68.91383       -7.80318
H         58.11122       69.11591       -8.54126
N         57.65553       66.92892       -6.23535
C         57.35012       65.52353       -5.90925
C         56.36071       64.79018       -6.83655
O         56.09409       63.62717       -6.56170
C         56.81407       65.44477       -4.45631
C         55.58644       66.28763       -4.22305
O         55.08090       67.04282       -5.21976
O         55.09855       66.34541       -3.10752
H         57.41858       67.64596       -5.53972
H         58.30162       64.94770       -5.93252
H         57.60703       65.81427       -3.77073
H         56.59984       64.38867       -4.18211
N         55.78324       65.35382       -7.93495
C         54.84537       64.63355       -8.79561
C         53.45609       64.42111       -8.20011
O         52.62273       63.85468       -8.89389
H         56.05125       66.30146       -8.21638
H         55.29058       63.66029       -9.09892
H         54.69125       65.23051       -9.72032
N         53.11099       64.87703       -6.96243
C         51.76403       64.80589       -6.39597
C         51.24688       66.20744       -6.12116
O         51.95697       67.17018       -6.36720
C         51.79583       64.00465       -5.07403
C         51.98476       62.50351       -5.31099
C         51.98347       61.74832       -4.00419
N         53.02672       60.95903       -3.65990
O         51.02299       61.83961       -3.25289
H         53.82264       65.34161       -6.38953
H         51.04364       64.33092       -7.09815
H         50.82951       64.12055       -4.53895
H         52.59808       64.40229       -4.41318
H         52.92889       62.32072       -5.86595
H         51.13617       62.13222       -5.92600
H         53.83882       60.85329       -4.28451
H         53.01647       60.44015       -2.76912
N         49.99757       66.39226       -5.60836
C         49.46418       67.68816       -5.20393
C         49.06593       67.59277       -3.73595
O         48.36206       66.66241       -3.36492
C         48.25853       68.09945       -6.08881
C         47.79145       69.52414       -5.73242
C         48.62817       68.06575       -7.58022
H         49.38968       65.56829       -5.47990
H         50.23288       68.48571       -5.33125
H         47.41864       67.38932       -5.92587
H         47.47630       69.58239       -4.67339
H         48.61088       70.25943       -5.89833
H         46.92461       69.82144       -6.35913
H         48.91863       67.03991       -7.88846
H         47.75435       68.36663       -8.19690
H         49.47122       68.75717       -7.79509
N         49.44771       68.55269       -2.85401
C         49.11637       68.54781       -1.43255
C         47.94311       69.48138       -1.19717
O         47.48551       70.11597       -2.13119
C         50.38589       68.98883       -0.64326
C         50.27442       68.99170        0.86086
N         50.00219       67.85511        1.54091
O         50.45736       70.03124        1.47621
H         49.92082       69.37811       -3.23274
H         48.80588       67.52936       -1.11441
H         50.67067       70.01266       -0.97714
H         51.22107       68.30781       -0.88836
H         49.85992       66.96496        1.04395
H         49.93494       67.86797        2.56977
N         47.38991       69.61119        0.03383
C         46.36696       70.60060        0.35758
C         46.91734       72.00015        0.10166
O         46.29099       72.78111       -0.60050
C         45.99785       70.44384        1.84734
C         45.04183       71.49526        2.34585
C         43.72138       71.56400        1.87320
C         45.47812       72.41852        3.30979
C         42.84923       72.53983        2.36990
C         44.61014       73.39402        3.79766
C         43.28979       73.45603        3.33320
O         42.43938       74.38812        3.80712
H         47.74066       69.00606        0.78870
H         45.45471       70.43261       -0.25872
H         46.93728       70.49800        2.43989
H         45.56179       69.43657        2.02510
H         43.36501       70.85867        1.13253
H         46.49476       72.38655        3.68247
H         41.82928       72.58201        2.00929
H         44.96658       74.09760        4.53906
H         42.70819       75.03146        4.47890
N         48.11254       72.35876        0.65047
C         48.74835       73.67415        0.53839
C         49.09802       74.08752       -0.90024
O         49.53623       75.21271       -1.08990
C         49.99670       73.65666        1.45848
C         50.72296       74.99650        1.63513
C         51.82391       74.90494        2.66162
O         52.08531       73.75024        3.30861
O         52.48835       75.89515        2.91892
H         48.58215       71.64585        1.22515
H         48.03189       74.42396        0.93982
H         50.71789       72.89307        1.08871
H         49.64209       73.34384        2.46713
H         49.99404       75.76461        1.97055
H         51.17988       75.31442        0.67679
N         48.88990       73.26434       -1.96497
C         49.13859       73.62981       -3.35462
C         47.80161       73.75008       -4.06261
O         47.49353       74.82319       -4.56304
C         50.05199       72.56518       -3.99037
C         51.46538       72.63799       -3.39126
C         52.28638       71.45009       -3.78166
O         53.21648       71.56338       -4.55081
O         52.04601       70.25508       -3.22557
H         48.51609       72.32545       -1.80553
H         49.63878       74.62144       -3.43871
H         50.13449       72.71808       -5.09012
H         49.60041       71.56665       -3.81884
H         51.44753       72.66389       -2.28118
H         51.93777       73.57806       -3.75417
N         46.92960       72.70820       -4.10025
C         45.60528       72.81740       -4.66860
H         45.03084       73.60220       -4.13014
H         45.66801       73.06974       -5.74659
H         45.06654       71.85216       -4.55215
H         47.19808       71.81332       -3.68588
Ca        53.61218       68.71970       -4.94763
O         54.41948       68.22446       -8.20435
H         54.57358       68.05557       -9.16772
H         55.31602       68.43949       -7.84255
O         52.20738       69.88303       -7.46955
H         51.86435       70.66806       -6.97514
H         51.79893       69.95007       -8.36869
O         52.15076       67.11141       -2.84628
H         52.90454       67.60275       -2.43247
H         52.54186       66.67358       -3.64007

Ca 1.0



