%chk=holoCaM-CaMKII.loop3.water1.frame243.chk
%nprocshared=20
%mem=10GB
%nosave
#b3lyp/svp scf=(tight,noincore,xqc) Test 
#IOP(5/87=12) Density=Current Pop=(MK,readradii) iop(6/33=2) iop(6/42=6)

holoCaM-CaMKII.loop3.water1.frame243 

   0  1 
C         95.17732       95.51270       42.96214
C         95.68848       94.11861       42.77091
O         96.64665       93.74219       43.43147
H         94.12016       95.47878       43.29713
H         95.78029       96.04921       43.72600
H         95.24327       96.06641       42.00228
N         95.09835       93.29656       41.85772
C         95.54917       91.93858       41.60045
C         96.13904       91.87765       40.18595
O         95.45568       92.19315       39.22219
C         94.39855       90.93648       41.87780
C         94.90209       89.54482       41.66574
O         95.30018       89.26100       40.56921
O         95.03712       88.61109       42.61868
H         94.30722       93.65874       41.30260
H         96.36150       91.67470       42.30786
H         93.53851       91.12618       41.19912
H         94.04453       91.05097       42.92193
N         97.45249       91.53391       40.02504
C         98.21300       91.65892       38.77651
C         97.79135       90.69901       37.65274
O         98.21974       90.89837       36.52574
C         99.71014       91.43539       39.11651
C        100.70409       91.94621       38.06856
C        102.13936       91.64757       38.52577
C        103.16805       92.30937       37.60378
N        104.52983       91.97097       38.01656
H         97.97416       91.28381       40.87728
H         98.07308       92.70922       38.43741
H         99.87389       90.35430       39.32997
H         99.94656       92.00258       40.04558
H        100.56161       93.04499       37.97044
H        100.54224       91.47162       37.08027
H        102.29033       90.54503       38.53545
H        102.29907       92.03444       39.55688
H        103.03386       93.41377       37.64906
H        103.00899       91.97666       36.55479
H        104.68470       90.94094       37.92056
H        105.20898       92.47422       37.40146
H        104.69267       92.26024       39.00866
N         97.01406       89.60705       37.89586
C         96.65362       88.58985       36.90634
C         95.12982       88.58313       36.69874
O         94.69564       88.78145       35.57240
C         97.31228       87.23898       37.31712
C         96.84850       86.70052       38.64204
O         95.74396       86.20875       38.73009
O         97.60841       86.80006       39.75190
H         96.71604       89.44814       38.85366
H         97.10683       88.83858       35.92046
H         98.40493       87.43307       37.39073
H         97.16592       86.46315       36.53494
N         94.26602       88.48429       37.75275
C         92.82877       88.71524       37.68289
C         91.98016       87.72153       38.46970
O         90.77478       87.91967       38.50501
H         94.65975       88.37350       38.67778
H         92.47661       88.76281       36.63005
H         92.63658       89.70774       38.14561
N         92.50504       86.63444       39.11025
C         91.67575       85.64215       39.79353
C         91.03209       86.15421       41.07720
O         90.02770       85.57791       41.47669
C         92.44319       84.32293       40.04458
C         93.50923       84.40944       41.11212
N         93.47415       83.58944       42.18791
O         94.42331       85.20777       40.99890
H         93.50154       86.45225       39.02634
H         90.86721       85.37777       39.07537
H         92.91506       83.99999       39.09085
H         91.70985       83.53916       40.33199
H         92.72236       82.89463       42.30329
H         94.21284       83.63803       42.90359
N         91.56347       87.18384       41.80495
C         90.93222       87.72233       43.00470
C         91.73163       87.53932       44.28744
O         91.26479       88.01518       45.30813
H         92.44215       87.62405       41.49033
H         89.93914       87.25357       43.18207
H         90.75641       88.80743       42.84242
N         92.90451       86.83431       44.33504
C         93.64319       86.58540       45.57802
C         95.05060       87.14419       45.44269
O         95.73250       86.77579       44.50196
C         93.69455       85.07238       45.88561
C         92.32501       84.48064       46.16589
C         92.00910       84.03315       47.46173
C         91.35447       84.35833       45.15260
C         90.75007       83.49344       47.74179
C         90.09589       83.81721       45.43536
C         89.78877       83.38565       46.73312
O         88.57839       82.86571       47.02201
H         93.27690       86.42060       43.47046
H         93.15144       87.07142       46.44792
H         94.33002       84.95200       46.79101
H         94.18492       84.50868       45.06605
H         92.73398       84.10857       48.26244
H         91.56373       84.67320       44.14024
H         90.52123       83.16016       48.74642
H         89.36060       83.73330       44.64464
H         87.88296       82.77565       46.35484
N         95.55248       88.03843       46.35545
C         96.83384       88.72598       46.16512
C         97.91038       88.24067       47.13140
O         97.77452       88.37044       48.33725
C         96.65828       90.27919       46.19500
C         96.14992       90.84269       47.55090
C         95.73131       90.69302       45.04799
C         96.10157       92.37306       47.59307
H         94.99252       88.26290       47.18797
H         97.21526       88.49772       45.14777
H         97.65878       90.72395       45.99228
H         96.84077       90.54405       48.36074
H         95.13846       90.45069       47.78694
H         94.70751       90.28605       45.19314
H         95.66793       91.79142       44.93878
H         96.14785       90.30320       44.10341
H         95.36188       92.78212       46.87633
H         95.79451       92.70357       48.60742
H         97.10506       92.79524       47.37133
N         99.03519       87.65399       46.62392
C        100.17041       87.19991       47.42390
C        100.99358       88.37083       47.95642
O        100.66169       89.51601       47.69107
C        101.07212       86.30488       46.54481
O        101.60090       87.04382       45.47692
H         99.07988       87.50409       45.60737
H         99.79872       86.57218       48.26300
H        100.46200       85.46316       46.14871
H        101.89976       85.87826       47.15121
H        102.23177       86.44105       45.00509
N        102.12456       88.13812       48.68292
C        103.05273       89.18075       49.11631
C        103.66832       89.89850       47.92492
O        103.63536       91.11963       47.88460
C        104.18269       88.56243       49.95118
H        102.35562       87.16069       48.91740
H        102.52379       89.91148       49.76858
H        104.75355       87.81460       49.35925
H        104.88391       89.35366       50.29431
H        103.76087       88.05832       50.84615
N        104.24458       89.18572       46.91291
C        104.89120       89.78678       45.74653
C        103.97824       90.76851       45.04243
O        104.39098       91.89676       44.81064
C        105.32512       88.69165       44.76367
H        104.20752       88.15624       46.97153
H        105.80806       90.32706       46.07283
H        105.83992       89.14285       43.88816
H        106.03101       87.99232       45.26013
H        104.44672       88.11411       44.40281
N        102.70460       90.41743       44.71582
C        101.75383       91.32953       44.08449
C        101.62493       92.60022       44.90694
O        101.87890       93.67219       44.37517
C        100.37840       90.64448       43.91947
C        100.44188       89.48115       42.91390
C         99.12668       88.76995       42.81460
O         99.05544       87.45094       43.07434
O         98.12062       89.37423       42.48586
H        102.39284       89.47082       44.97490
H        102.12442       91.61164       43.07249
H         99.64045       91.38635       43.54020
H        100.02592       90.27661       44.90896
H        101.21007       88.74001       43.21528
H        100.71652       89.87754       41.91264
N        101.28193       92.54749       46.22277
C        101.21097       93.71121       47.08253
H        101.44556       94.65301       46.54366
H        100.19169       93.79134       47.51254
H        101.94233       93.59564       47.91082
H        101.09021       91.63515       46.65035
Ca        96.43585       87.05587       41.69387
O         97.54950       84.43917       42.97417
H         98.00102       84.81162       43.77288
H         96.78987       83.91920       43.33855

Ca 1.0



