%chk=holoCaM-CaMKII.loop1.water2.frame143.chk
%nprocshared=20
%mem=10GB
%nosave
#b3lyp/svp scf=(tight,noincore,xqc) Test 
#IOP(5/87=12) Density=Current Pop=(MK,readradii) iop(6/33=2) iop(6/42=6)

holoCaM-CaMKII.loop1.water2.frame143 

   0  1 
C          5.03086       15.94232       63.52239
C          3.71778       15.87173       62.80149
O          2.97086       16.83658       62.84070
H          5.63596       16.77597       63.10900
H          4.85013       16.11970       64.60315
H          5.60600       14.99872       63.41127
N          3.37526       14.76025       62.09665
C          2.11432       14.63882       61.37534
C          0.96657       14.56134       62.37261
O          0.94132       13.60391       63.13382
C          2.16961       13.36391       60.50690
C          1.00502       13.18798       59.58850
O          0.97379       12.21330       58.86126
O          0.01414       14.09282       59.52897
H          4.05459       13.98401       62.05097
H          2.01191       15.51674       60.69858
H          2.25032       12.46848       61.16258
H          3.07751       13.40365       59.86838
N         -0.00373       15.52600       62.44437
C         -1.06715       15.49852       63.45334
C         -2.46701       15.29682       62.86933
O         -3.39616       15.19469       63.65849
C         -0.98957       16.74793       64.37067
C          0.34227       16.89168       65.15180
C          0.79633       15.63530       65.92577
C         -0.22352       15.12079       66.95273
N          0.22172       13.84906       67.52462
H          0.03054       16.32176       61.78950
H         -0.94720       14.61350       64.10780
H         -1.80961       16.69200       65.11707
H         -1.15333       17.67436       63.77661
H          0.25016       17.74578       65.85795
H          1.14681       17.14715       64.43750
H          1.75678       15.85244       66.44218
H          1.00975       14.83098       65.20392
H         -1.20784       14.94932       66.46933
H         -0.35492       15.87666       67.75713
H          1.14945       13.96102       67.99305
H         -0.48152       13.52067       68.22488
H          0.29606       13.12824       66.76854
N         -2.69810       15.14334       61.53203
C         -3.99665       14.73546       60.97358
C         -3.90837       13.38182       60.25879
O         -4.92613       12.93184       59.75072
C         -4.60299       15.83814       60.07616
C         -3.60637       16.41983       59.13274
O         -3.30704       17.59858       59.24758
O         -2.90945       15.65403       58.27838
H         -1.91344       15.25771       60.87578
H         -4.74383       14.57242       61.78028
H         -4.94490       16.66353       60.74080
H         -5.49590       15.46181       59.53370
N         -2.76826       12.63043       60.25488
C         -2.70581       11.27054       59.73953
C         -2.88439       11.16543       58.24380
O         -3.76304       10.44418       57.79417
H         -1.92044       12.98075       60.71922
H         -3.45820       10.64389       60.26552
H         -1.70176       10.85174       59.97115
N         -2.02612       11.81403       57.41496
C         -1.99223       11.65026       55.96442
C         -0.63231       11.11536       55.50532
O         -0.38041       11.08628       54.30849
C         -2.40600       12.96879       55.27218
C         -1.59045       14.19751       55.57503
O         -1.92881       15.26153       55.08394
O         -0.51574       14.16197       56.38209
H         -1.32708       12.43060       57.84704
H         -2.74391       10.90288       55.62682
H         -3.45213       13.18490       55.57975
H         -2.40576       12.81366       54.17068
N          0.26964       10.60979       56.40105
C          1.56631       10.05770       56.04013
C          2.58550       11.08390       55.58611
O          3.70664       10.67313       55.31613
H          0.01137       10.53692       57.39280
H          1.43575        9.27197       55.26506
H          1.99926        9.57101       56.94233
N          2.30136       12.41545       55.47782
C          3.28204       13.41273       55.05742
C          3.41528       14.52154       56.08652
O          2.60634       14.60486       57.00356
C          2.89346       14.00732       53.68240
C          2.89828       12.94641       52.57336
O          1.64770       14.65895       53.74198
H          1.35452       12.74555       55.69002
H          4.28479       12.94091       54.95977
H          3.65416       14.76511       53.39568
H          0.93397       13.97008       53.77964
H          3.90449       12.48343       52.49358
H          2.15218       12.14992       52.78023
H          2.64810       13.42185       51.60161
N          4.46270       15.39270       56.00809
C          4.68251       16.48819       56.94471
C          4.88777       17.77468       56.15169
O          5.90329       17.89992       55.47910
C          5.89413       16.14622       57.87065
C          5.54537       14.90695       58.74305
C          6.28926       17.33379       58.76990
C          6.71773       14.35614       59.55468
H          5.16939       15.24459       55.26999
H          3.79918       16.61118       57.59700
H          6.76398       15.90639       57.21974
H          5.20608       14.07359       58.09461
H          4.71334       15.16548       59.43521
H          7.19175       17.10190       59.36891
H          6.55083       18.22160       58.16237
H          5.46391       17.58972       59.46155
H          7.53885       14.05094       58.87224
H          7.09749       15.09179       60.29023
H          6.37889       13.46270       60.12150
N          3.95254       18.77099       56.17051
C          4.13045       20.04762       55.47412
C          5.20762       20.87536       56.15956
O          5.71112       20.46500       57.19019
C          2.81485       20.88732       55.43604
C          1.64432       20.16902       54.76111
O          2.44003       21.33623       56.71383
H          3.07813       18.60016       56.67658
H          4.42172       19.83565       54.42130
H          3.00532       21.79041       54.81837
H          2.14116       20.55356       57.24135
H          1.33113       19.29772       55.36289
H          0.77681       20.85920       54.68745
H          1.92549       19.83591       53.74052
N          5.58617       22.08195       55.65833
C          6.50752       22.97577       56.35990
C          5.89883       23.47365       57.67194
O          6.63576       23.65800       58.63043
C          6.91490       24.16948       55.46470
C          7.70910       23.68249       54.24006
O          5.77157       24.87814       55.05851
H          5.18487       22.38365       54.75846
H          7.44575       22.42410       56.59791
H          7.57735       24.83969       56.06029
H          6.08764       25.68534       54.57463
H          8.02949       24.54746       53.62279
H          8.62020       23.13739       54.56879
H          7.10186       23.00572       53.60385
N          4.55716       23.70399       57.78342
C          3.89927       24.16649       59.00832
C          4.12984       23.18526       60.14484
O          4.62761       23.57311       61.19213
C          2.38212       24.33020       58.74054
C          1.60434       24.91638       59.92947
C          0.12191       25.08589       59.56433
C         -0.67213       25.73275       60.70639
N         -2.07666       25.90337       60.33243
H          3.97059       23.53700       56.95198
H          4.30963       25.16278       59.28561
H          1.93688       23.34955       58.46325
H          2.25786       25.01835       57.87598
H          2.03588       25.90775       60.18765
H          1.68872       24.24650       60.81320
H         -0.31634       24.09058       59.32883
H          0.03934       25.73280       58.66355
H         -0.23489       26.72875       60.94142
H         -0.60784       25.09590       61.61634
H         -2.51228       24.97366       60.13267
H         -2.59060       26.35538       61.12283
H         -2.15289       26.51592       59.48769
N          3.79304       21.88061       59.97785
C          3.97303       20.83536       60.98063
C          5.43200       20.74756       61.38742
O          5.72232       20.80742       62.57428
C          3.45919       19.49560       60.41035
C          1.93337       19.55004       60.19669
C          1.38634       18.33361       59.52256
O          0.09681       18.02897       59.68781
O          2.00271       17.78243       58.63290
H          3.41393       21.61607       59.05929
H          3.37260       21.06357       61.89031
H          3.68620       18.66331       61.10988
H          3.97072       19.29884       59.44354
H          1.64011       20.41087       59.56511
H          1.42307       19.68402       61.17514
N          6.41044       20.66891       60.44882
C          7.81607       20.66450       60.78423
H          8.42386       20.66226       59.85379
H          8.06855       21.57957       61.36254
H          8.06330       19.76249       61.38049
H          6.15068       20.65846       59.45944
Ca        -0.84743       16.47822       58.37198
O         -1.08065       19.19010       56.87583
H         -1.91374       18.87418       57.30683
H         -0.69901       19.83995       57.51770
O          0.44752       16.93785       55.17463
H         -0.33044       17.42150       54.79840
H          1.17436       17.09926       54.52220

Ca 1.0



