%chk=holoCaM-CaMKII.loop2.water2.frame342.chk
%nprocshared=20
%mem=10GB
%nosave
#b3lyp/svp scf=(tight,noincore,xqc) Test 
#IOP(5/87=12) Density=Current Pop=(MK,readradii) iop(6/33=2) iop(6/42=6)

holoCaM-CaMKII.loop2.water2.frame342 

   -2  1 
C         39.55964       59.38297       65.55642
C         40.79055       60.24980       65.47431
O         41.37708       60.35684       64.40883
H         38.78530       59.76694       64.85758
H         39.80374       58.33491       65.29051
H         39.12155       59.39150       66.57872
N         41.20752       60.93948       66.56890
C         42.30209       61.90662       66.56973
C         43.68811       61.29000       66.40771
O         44.05823       60.43929       67.20480
C         42.27570       62.67375       67.90569
C         43.35341       63.70758       67.96203
O         43.40171       64.58237       67.11465
O         44.28911       63.65015       68.92845
H         40.65251       60.83474       67.43318
H         42.11819       62.64960       65.76104
H         42.40674       61.96336       68.75143
H         41.29464       63.17952       68.02468
N         44.54721       61.77745       65.46070
C         45.96071       61.41109       65.37120
C         46.90780       62.62902       65.43026
O         48.11029       62.41299       65.37010
C         46.18899       60.65490       64.05912
H         44.18917       62.46517       64.78569
H         46.23500       60.72886       66.20479
H         47.24590       60.32038       63.97988
H         45.53958       59.75436       64.02465
H         45.95050       61.30250       63.18789
N         46.45760       63.92242       65.48916
C         47.32496       65.10841       65.37113
C         47.16141       66.13719       66.49888
O         47.88561       67.12396       66.47832
C         47.07084       65.78842       64.00035
C         45.60402       65.87396       63.67179
O         44.72857       66.42150       64.53244
O         45.18162       65.31512       62.67237
H         45.44541       64.08913       65.52591
H         48.39824       64.81729       65.39369
H         47.54697       65.16666       63.21006
H         47.55184       66.78974       63.95936
N         46.26963       65.98981       67.51604
C         46.13413       66.93284       68.62321
C         45.58840       68.31594       68.27449
O         45.46815       69.11469       69.19304
H         45.70609       65.13890       67.55285
H         47.12354       67.04762       69.11747
H         45.43560       66.49585       69.36966
N         45.23944       68.69149       67.00811
C         44.75510       70.03614       66.67185
C         43.34368       70.35961       67.19290
O         42.87520       71.46056       66.93719
C         44.86378       70.28247       65.14553
C         43.98219       69.43628       64.26340
N         44.04813       69.58423       62.92132
O         43.21157       68.62108       64.74198
H         45.38762       68.02714       66.24241
H         45.45883       70.77207       67.12146
H         45.91994       70.10611       64.84419
H         44.62848       71.34834       64.93550
H         44.69657       70.26361       62.49773
H         43.45252       69.01971       62.30235
N         42.62055       69.48438       67.95152
C         41.31165       69.78729       68.52168
C         40.14478       69.78790       67.54265
O         39.03203       70.00522       68.00013
H         43.04164       68.58968       68.22146
H         41.36203       70.75748       69.06274
H         41.07413       69.00232       69.27244
N         40.29404       69.54005       66.20959
C         39.18227       69.49453       65.25385
C         39.13736       68.14387       64.54410
O         39.98900       67.30605       64.80284
C         39.31822       70.65639       64.23736
C         39.15085       72.02546       64.91601
O         40.53309       70.57856       63.52950
H         41.23584       69.37573       65.84385
H         38.20683       69.61247       65.77495
H         38.49555       70.59362       63.49509
H         41.25546       70.93652       64.10930
H         39.21564       72.83286       64.15660
H         38.15428       72.08499       65.40493
H         39.93434       72.19274       65.68471
N         38.16333       67.86831       63.62182
C         38.08178       66.60463       62.89086
C         38.37893       66.88048       61.42565
O         37.62255       67.58779       60.77406
C         36.69260       65.92515       63.09698
C         36.45721       65.64317       64.60548
C         36.59374       64.62696       62.26730
C         35.09761       65.01699       64.92579
H         37.45960       68.59022       63.40645
H         38.85261       65.89855       63.26550
H         35.90099       66.62123       62.73905
H         36.51509       66.60119       65.16546
H         37.24851       64.96802       64.99135
H         36.74655       64.83280       61.18855
H         37.35118       63.88877       62.60306
H         35.58548       64.17407       62.34629
H         34.27412       65.66621       64.56181
H         35.00086       64.00656       64.47938
H         34.99928       64.89859       66.02575
N         39.51170       66.37324       60.86115
C         39.91747       66.63179       59.48173
C         39.08981       65.79817       58.50947
O         38.28245       64.99508       58.95112
C         41.41620       66.29469       59.29480
C         42.32182       67.09719       60.19274
O         42.25522       66.96432       61.53022
O         43.15155       67.84993       59.70831
H         40.13959       65.82288       61.46051
H         39.78813       67.71542       59.26379
H         41.70479       66.52180       58.24808
H         41.59154       65.21344       59.48919
N         39.24810       65.93179       57.15751
C         38.52991       65.10219       56.19138
C         38.94462       63.63599       56.30754
O         38.04454       62.81654       56.41605
C         38.66026       65.64851       54.75205
C         37.81877       64.86287       53.76539
C         36.42314       64.75849       53.93180
C         38.42025       64.23351       52.66141
C         35.65218       64.03386       53.01858
C         37.64271       63.51468       51.74665
C         36.26084       63.41343       51.92617
H         39.89184       66.65519       56.80399
H         37.44712       65.18028       56.43119
H         39.71498       65.66661       54.42751
H         38.30343       66.70089       54.74200
H         35.92529       65.23497       54.76587
H         39.48939       64.30031       52.50514
H         34.58123       63.95572       53.15733
H         38.11150       63.03578       50.89696
H         35.66088       62.85615       51.21815
N         40.24867       63.20176       56.33715
C         40.63694       61.82930       56.64506
C         39.93118       61.27518       57.87629
O         39.36228       60.19575       57.80640
C         42.14853       61.93568       56.92333
C         42.55704       63.03013       55.97360
C         41.42365       64.03473       56.15940
H         40.44534       61.19185       55.75298
H         42.33386       62.34411       57.94352
H         42.70906       60.98126       56.83212
H         43.57387       63.45009       56.13242
H         42.49870       62.61157       54.94294
H         41.56933       64.64200       57.06765
H         41.39849       64.66775       55.25572
N         39.94308       61.97817       59.04541
C         39.36329       61.49067       60.29878
C         37.85054       61.35089       60.23518
O         37.29906       60.63143       61.05616
C         39.78163       62.42157       61.46081
C         41.30725       62.34267       61.64113
C         41.90388       63.33336       62.58613
O         43.11104       63.30504       62.74973
O         41.19274       64.29856       63.19695
H         40.42030       62.89199       59.04377
H         39.78163       60.47751       60.49562
H         39.29659       62.11784       62.41472
H         39.46159       63.45841       61.21683
H         41.82599       62.52115       60.67851
H         41.56632       61.31773       61.97927
N         37.11563       62.00678       59.29730
C         35.68489       61.86482       59.13372
H         35.19535       62.84802       59.29229
H         35.47503       61.52652       58.09607
H         35.24922       61.12502       59.83592
H         37.58673       62.65493       58.66598
Ca        42.60902       65.68572       64.27305
O         39.77802       63.95109       65.89458
H         39.56869       64.65005       65.22801
H         39.35278       64.27111       66.72895
O         41.72789       66.74932       67.11446
H         42.07578       66.53479       68.01608
H         40.96365       66.13478       66.99929

Ca 1.0



