%chk=holoCaM-CaMKII.loop1.water2.frame406.chk
%nprocshared=20
%mem=10GB
%nosave
#b3lyp/svp scf=(tight,noincore,xqc) Test 
#IOP(5/87=12) Density=Current Pop=(MK,readradii) iop(6/33=2) iop(6/42=6)

holoCaM-CaMKII.loop1.water2.frame406 

   0  1 
C         44.69258       46.96211       38.82088
C         45.27736       45.98545       37.85520
O         44.72723       45.86068       36.77340
H         43.64971       46.66327       39.05860
H         45.28578       47.01331       39.75477
H         44.67914       47.96580       38.34363
N         46.37395       45.23355       38.16853
C         46.96815       44.31846       37.20855
C         46.53541       42.89796       37.51373
O         47.23171       42.17328       38.21183
C         48.50288       44.45757       37.14789
C         49.02726       43.74889       35.93080
O         48.19166       43.53899       34.89107
O         50.21719       43.51233       35.81776
H         46.77938       45.29368       39.11448
H         46.58175       44.58077       36.20361
H         48.94899       44.03823       38.07676
H         48.81700       45.51815       37.07540
N         45.33028       42.46462       37.05848
C         44.75718       41.17321       37.41589
C         45.39885       39.99710       36.67756
O         44.97203       38.87867       36.93093
C         43.22386       41.18222       37.19303
C         42.55133       42.35792       37.93288
C         41.02280       42.29807       37.86743
C         40.36716       43.59419       38.38469
N         40.74563       43.91978       39.76162
H         44.76611       43.12631       36.50834
H         44.89704       41.02326       38.51079
H         42.80913       40.22716       37.58605
H         42.98881       41.24944       36.10810
H         42.87088       43.31559       37.47581
H         42.86556       42.34822       38.99859
H         40.66616       41.42154       38.45156
H         40.70214       42.16872       36.81086
H         39.26314       43.47484       38.32531
H         40.65360       44.44044       37.72052
H         40.51904       43.12472       40.40092
H         41.76348       44.15107       39.81908
H         40.21284       44.76652       40.06578
N         46.42963       40.14364       35.78504
C         47.04543       39.00792       35.09181
C         48.43209       38.69063       35.64463
O         49.01840       37.70559       35.21692
C         47.17774       39.30344       33.58621
C         45.89321       39.74055       32.94444
O         45.81325       40.84595       32.43110
O         44.83198       38.91460       32.91369
H         46.82267       41.07808       35.60472
H         46.42208       38.09699       35.22771
H         47.56462       38.40794       33.05331
H         47.92435       40.10702       33.46764
N         49.02408       39.47428       36.59026
C         50.33128       39.21013       37.16274
C         51.44913       39.24919       36.14210
O         52.22121       38.30297       36.08565
H         48.53425       40.30362       36.94882
H         50.31956       38.23147       37.69245
H         50.54225       39.99761       37.91839
N         51.60824       40.32344       35.31541
C         52.73419       40.47882       34.38948
C         53.47637       41.80605       34.61327
O         54.38607       42.09406       33.84827
C         52.26734       40.29718       32.92349
C         51.24432       41.29666       32.51102
O         51.49941       42.48498       32.53313
O         50.00234       40.90268       32.21110
H         50.89307       41.06550       35.34219
H         53.47958       39.66952       34.54707
H         51.82816       39.28038       32.82468
H         53.13500       40.36408       32.23377
N         53.19474       42.63370       35.66683
C         53.96100       43.83757       35.96685
C         53.59029       45.07439       35.16533
O         54.20150       46.10257       35.42424
H         52.50101       42.34517       36.37014
H         55.04788       43.61875       35.87841
H         53.77244       44.11007       37.02797
N         52.61661       45.08790       34.20842
C         52.20511       46.30491       33.50207
C         50.69675       46.51535       33.55759
O         49.94976       45.58813       33.83055
C         52.70939       46.31462       32.03759
C         54.22008       46.57169       31.95072
O         52.36495       45.12875       31.36793
H         52.13822       44.21149       33.98053
H         52.64102       47.19549       34.00593
H         52.23646       47.16345       31.49698
H         52.98581       44.41495       31.67224
H         54.79562       45.78092       32.47466
H         54.53242       46.60221       30.88512
H         54.45839       47.55578       32.40913
N         50.19520       47.76478       33.34429
C         48.78372       48.13643       33.41882
C         48.38598       48.74295       32.08279
O         49.07568       49.63125       31.59769
C         48.56460       49.11537       34.61068
C         48.88824       48.37876       35.94076
C         47.11430       49.64694       34.63184
C         48.89527       49.27994       37.17539
H         50.86748       48.52559       33.15428
H         48.14081       47.25001       33.61396
H         49.25401       49.98002       34.48838
H         49.90119       47.92823       35.88308
H         48.15425       47.55697       36.09442
H         46.39046       48.81221       34.75102
H         46.96203       50.37248       35.45522
H         46.87788       50.19013       33.69365
H         49.16015       48.67189       38.06696
H         49.65648       50.07946       37.05589
H         47.90338       49.73480       37.36426
N         47.26933       48.30558       31.43692
C         46.87638       48.73300       30.09759
C         45.60479       49.56501       30.11901
O         45.02527       49.77683       31.17544
C         46.68555       47.47862       29.19856
C         47.98254       46.67397       29.04872
O         45.63737       46.66757       29.67878
H         46.67333       47.61770       31.91447
H         47.66441       49.37859       29.65026
H         46.40600       47.79016       28.17148
H         45.98727       46.08734       30.40381
H         47.79842       45.78650       28.40616
H         48.76739       47.30072       28.57662
H         48.34536       46.32939       30.03896
N         45.12172       50.07471       28.94924
C         43.88135       50.83809       28.82539
C         42.69878       50.01757       29.30731
O         41.86206       50.55362       30.01846
C         43.64489       51.29664       27.36311
C         44.71818       52.29299       26.89982
O         43.61601       50.18558       26.50331
H         45.66101       49.88807       28.09099
H         43.94263       51.76063       29.44690
H         42.66095       51.82202       27.33179
H         43.19250       50.48628       25.65720
H         44.72558       53.18281       27.56498
H         45.72939       51.83720       26.90160
H         44.49361       52.63507       25.86741
N         42.58443       48.69875       28.97991
C         41.51168       47.83771       29.47236
C         41.52066       47.80481       30.98730
O         40.50491       48.11492       31.59511
C         41.65546       46.42488       28.84440
C         40.48605       45.45434       29.12686
C         40.50938       44.69673       30.47040
C         41.65385       43.66685       30.54034
N         41.54222       42.82979       31.73578
H         43.31015       48.28413       28.37497
H         40.53802       48.25051       29.12453
H         42.63418       45.95503       29.07745
H         41.63818       46.60102       27.74612
H         40.48782       44.67370       28.33473
H         39.53219       46.01469       29.02239
H         39.55488       44.13006       30.53302
H         40.54478       45.38451       31.33788
H         42.63691       44.17936       30.53709
H         41.60752       43.00502       29.64642
H         40.63882       42.30221       31.72055
H         42.32863       42.13989       31.74640
H         41.58827       43.41605       32.59876
N         42.64634       47.44865       31.66391
C         42.70488       47.34873       33.12161
C         42.51143       48.68647       33.83485
O         42.37908       48.67647       35.05147
C         44.04755       46.73224       33.55868
C         44.22133       45.30523       33.01159
C         45.52887       44.69506       33.40267
O         45.54404       43.53594       34.08396
O         46.58038       45.21031       33.05976
H         43.47921       47.21110       31.10705
H         41.88623       46.66954       33.44992
H         44.08161       46.69341       34.66030
H         44.87309       47.38795       33.21641
H         44.18129       45.29877       31.90728
H         43.39789       44.67093       33.39957
N         42.49266       49.87272       33.16793
C         42.27655       51.13816       33.83452
H         41.27608       51.14437       34.31709
H         43.06302       51.30888       34.59919
H         42.31458       51.96575       33.09333
H         42.64659       49.89294       32.15777
Ca        48.62019       42.42946       33.01685
O         47.20738       42.31860       29.87158
H         47.23409       41.33268       29.95377
H         47.67048       42.50707       29.01665
O         49.47636       43.98915       30.23634
H         50.06571       44.40354       30.91174
H         49.91491       44.17249       29.36787

Ca 1.0



