%chk=holoCaM-CaMKII.loop1.water2.frame100.chk
%nprocshared=20
%mem=10GB
%nosave
#b3lyp/svp scf=(tight,noincore,xqc) Test 
#IOP(5/87=12) Density=Current Pop=(MK,readradii) iop(6/33=2) iop(6/42=6)

holoCaM-CaMKII.loop1.water2.frame100 

   0  1 
C         16.62185       46.08986       41.12823
C         15.58058       45.60814       40.16138
O         14.51065       45.23712       40.60534
H         17.55101       46.40289       40.60731
H         16.22664       46.95726       41.69732
H         16.87287       45.27176       41.83534
N         15.82662       45.61193       38.82216
C         14.89604       45.16991       37.78022
C         14.65784       43.65314       37.83144
O         15.24462       42.92704       37.03951
C         15.47834       45.61010       36.41568
C         14.62355       45.18229       35.26709
O         15.10171       44.48214       34.39225
O         13.33019       45.54508       35.20642
H         16.73964       45.98858       38.52135
H         13.92679       45.70295       37.87955
H         16.50070       45.18980       36.28365
H         15.55819       46.71858       36.39774
N         13.80430       43.09965       38.74190
C         13.63377       41.65732       38.88967
C         12.76037       41.01013       37.81956
O         12.65878       39.79083       37.84425
C         13.07599       41.31243       40.29284
C         13.94380       41.82645       41.46526
C         15.44002       41.46953       41.37011
C         15.70536       39.95962       41.25559
N         17.13670       39.69647       41.11649
H         13.31061       43.71207       39.39921
H         14.63400       41.18527       38.80621
H         12.99922       40.20796       40.38235
H         12.04792       41.72216       40.40790
H         13.52172       41.42440       42.41160
H         13.87048       42.93101       41.52306
H         15.95431       41.86470       42.27285
H         15.88194       41.98938       40.49339
H         15.19141       39.54289       40.36401
H         15.31173       39.44096       42.15662
H         17.65102       40.03813       41.95991
H         17.28703       38.66685       41.01522
H         17.50527       40.17324       40.26061
N         12.10673       41.72581       36.85749
C         11.28042       41.09743       35.81973
C         11.87554       41.25976       34.41928
O         11.30076       40.73181       33.47745
C          9.81144       41.56090       35.93273
C          9.56774       43.03511       35.76117
O         10.57379       43.89108       35.50537
O          8.43311       43.46647       35.88557
H         12.20425       42.74902       36.85326
H         11.24473       39.99685       35.97784
H          9.44482       41.27501       36.94421
H          9.19683       41.00997       35.18741
N         13.07802       41.87309       34.22160
C         13.81215       41.83734       32.96551
C         13.20480       42.63711       31.83730
O         12.99565       42.08317       30.76776
H         13.57160       42.28956       35.02157
H         13.96036       40.77877       32.65918
H         14.82106       42.26440       33.14285
N         12.95924       43.96692       31.98818
C         12.54404       44.85360       30.90261
C         13.46921       46.07386       30.77656
O         13.15746       46.96524       29.99863
C         11.05925       45.23974       31.07377
C         10.69886       45.98998       32.32101
O         11.54144       46.30096       33.14188
O          9.41225       46.31890       32.53603
H         13.08428       44.37394       32.92254
H         12.58327       44.32256       29.92585
H         10.46318       44.30175       31.06152
H         10.74357       45.85249       30.20181
N         14.64989       46.16129       31.46345
C         15.58067       47.27579       31.34491
C         15.16476       48.53557       32.08375
O         15.93688       49.48256       32.05538
H         14.96190       45.36855       32.03763
H         15.77635       47.49229       30.27185
H         16.54721       46.96973       31.80248
N         13.99537       48.62828       32.78174
C         13.60707       49.81026       33.55151
C         13.36020       49.46038       35.01428
O         13.30857       48.29394       35.36938
C         12.35252       50.46800       32.91973
C         12.71209       51.14631       31.59655
O         11.34350       49.52094       32.67426
H         13.34934       47.83423       32.77844
H         14.43097       50.55679       33.55996
H         11.95663       51.26906       33.58334
H         11.17094       49.04237       33.52385
H         13.11762       50.41362       30.86774
H         11.80917       51.62311       31.15925
H         13.47044       51.93977       31.77293
N         13.26109       50.46729       35.93160
C         13.08376       50.26516       37.36850
C         11.88407       51.09093       37.82517
O         11.83437       52.27631       37.52987
C         14.37971       50.67933       38.13108
C         15.60006       49.87723       37.59605
C         14.20509       50.43779       39.64751
C         16.93928       50.30167       38.20298
H         13.37860       51.43663       35.60001
H         12.91573       49.19134       37.60035
H         14.56277       51.76236       37.95568
H         15.69390       50.03649       36.50135
H         15.44878       48.78991       37.77523
H         14.05444       49.35574       39.85249
H         15.08756       50.78515       40.21942
H         13.33607       50.99877       40.04597
H         16.98040       50.10247       39.29210
H         17.75779       49.71982       37.72839
H         17.11903       51.38140       38.01496
N         10.90325       50.53260       38.59077
C          9.71269       51.24817       39.04891
C          9.79120       51.52500       40.54734
O         10.76744       51.15374       41.18072
C          8.43761       50.43030       38.69993
C          8.30857       50.15119       37.19571
O          8.38540       49.23358       39.43979
H         11.01779       49.56079       38.88810
H          9.64262       52.23759       38.54639
H          7.53980       51.02013       38.97806
H          8.97123       48.56759       38.99855
H          8.27384       51.10298       36.62610
H          9.16630       49.54547       36.83385
H          7.37207       49.58504       37.00253
N          8.78154       52.19899       41.17399
C          8.76843       52.51781       42.60402
C          8.90342       51.28079       43.46798
O          9.75843       51.29057       44.34231
C          7.49542       53.30523       43.00283
C          7.55028       54.74213       42.46650
O          6.34663       52.64087       42.53965
H          7.98182       52.50423       40.60123
H          9.64051       53.16831       42.84407
H          7.46317       53.37449       44.11546
H          5.56143       53.12447       42.90672
H          7.61012       54.76318       41.35974
H          6.64966       55.30335       42.79333
H          8.44032       55.26094       42.88620
N          8.10960       50.18525       43.30755
C          8.28045       48.99200       44.13178
C          9.68049       48.41681       43.96177
O         10.32588       48.14756       44.96539
C          7.19851       47.92998       43.82205
C          7.30406       46.64832       44.68853
C          7.20427       46.91181       46.20720
C          7.37193       45.64618       47.06761
N          6.30362       44.66950       46.85684
H          7.38139       50.19634       42.57656
H          8.13710       49.29402       45.18977
H          7.26364       47.63392       42.75209
H          6.19772       48.38621       43.98994
H          8.26578       46.13682       44.47062
H          6.47939       45.97167       44.38041
H          6.23502       47.40135       46.44491
H          8.02395       47.58923       46.51884
H          7.36330       45.95607       48.13702
H          8.35906       45.17584       46.86065
H          5.37221       45.11012       47.03499
H          6.34194       44.28301       45.88766
H          6.43502       43.87857       47.52852
N         10.22470       48.22494       42.72338
C         11.55429       47.63760       42.52903
C         12.67171       48.44491       43.18803
O         13.75871       47.90580       43.34624
C         11.88152       47.46093       41.03025
C         10.89957       46.50991       40.32285
C         11.22931       46.31937       38.86945
O         11.24643       47.26853       38.10529
O         11.45643       45.08444       38.38894
H          9.66420       48.49761       41.90284
H         11.54365       46.63485       43.01063
H         12.90415       47.05068       40.92601
H         11.87633       48.45845       40.55162
H          9.86662       46.90082       40.38618
H         10.92763       45.52171       40.82843
N         12.49307       49.73149       43.59303
C         13.51728       50.48521       44.28180
H         14.43252       50.55486       43.65829
H         13.14947       51.51255       44.49496
H         13.75677       49.99334       45.24885
H         11.60640       50.20267       43.40322
Ca        10.20198       46.11347       35.55829
O          8.09969       46.31438       37.56435
H          7.33156       46.76031       37.99956
H          7.72126       45.92375       36.73728
O          8.77572       48.47781       34.42001
H          7.83296       48.52891       34.71419
H          8.78167       48.91631       33.53306

Ca 1.0



