%chk=holoCaM.loop2.water2.frame326.chk
%nprocshared=20
%mem=10GB
%nosave
#b3lyp/svp scf=(tight,noincore,xqc) Test 
#IOP(5/87=12) Density=Current Pop=(MK,readradii) iop(6/33=2) iop(6/42=6)

holoCaM.loop2.water2.frame326 

   -2  1 
C         -4.51598       42.01468       75.85512
C         -5.85206       41.78751       76.50646
O         -6.41918       42.70813       77.07411
H         -3.75620       41.33689       76.29719
H         -4.59814       41.79241       74.76785
H         -4.18171       43.06662       75.97154
N         -6.43139       40.56375       76.41417
C         -7.77699       40.25177       76.88363
C         -7.92906       40.29567       78.39951
O         -7.17957       39.61867       79.08961
C         -8.15721       38.84718       76.38280
C         -9.55634       38.50347       76.76989
O         -9.80118       37.40569       77.50976
O        -10.47180       39.23703       76.43826
H         -5.90781       39.83364       75.90411
H         -8.48547       40.96909       76.41461
H         -7.45845       38.08595       76.79419
H         -8.08744       38.82323       75.27464
N         -8.95713       41.00099       78.96932
C         -9.25162       40.98911       80.40169
C        -10.65771       40.46500       80.74597
O        -10.91019       40.29226       81.93054
C         -9.08917       42.40887       80.95598
H         -9.56576       41.55880       78.35663
H         -8.52588       40.33137       80.92684
H         -9.26133       42.42635       82.05360
H         -8.06117       42.78054       80.75881
H         -9.81434       43.09867       80.47084
N        -11.63808       40.24868       79.81151
C        -13.01839       39.86601       80.16448
C        -13.61820       38.75338       79.28676
O        -14.75112       38.37044       79.54590
C        -13.91888       41.11937       80.16021
C        -13.74399       41.91576       78.91167
O        -13.94317       41.35546       77.71290
O        -13.32667       43.06166       78.97514
H        -11.44555       40.48912       78.83012
H        -13.05823       39.47335       81.20416
H        -13.62805       41.76686       81.01655
H        -14.98548       40.83988       80.29971
N        -12.92719       38.14943       78.28065
C        -13.42603       36.99667       77.53573
C        -14.55450       37.24932       76.54299
O        -15.01757       36.27234       75.97076
H        -11.96392       38.43762       78.11058
H        -13.74301       36.22061       78.26534
H        -12.58763       36.56824       76.94357
N        -15.03525       38.49208       76.24468
C        -16.10853       38.72412       75.26585
C        -15.72824       38.39510       73.80390
O        -16.57175       38.58077       72.93716
C        -16.64063       40.18010       75.35862
C        -15.66548       41.24731       74.93881
N        -16.05541       42.54119       74.88216
O        -14.52348       40.95112       74.63734
H        -14.65099       39.29455       76.75238
H        -16.97050       38.08127       75.55152
H        -16.97132       40.39077       76.39907
H        -17.53184       40.26489       74.69956
H        -17.01863       42.81319       75.12581
H        -15.39634       43.27153       74.57575
N        -14.50847       37.89026       73.45001
C        -14.13995       37.51322       72.08943
C        -13.66828       38.65748       71.20060
O        -13.28749       38.37401       70.07423
H        -13.83010       37.66156       74.18010
H        -14.97223       36.94902       71.61353
H        -13.27593       36.81717       72.15523
N        -13.65018       39.95618       71.61791
C        -13.18839       41.08180       70.80022
C        -12.11794       41.89866       71.53422
O        -11.77851       41.57549       72.66236
C        -14.39991       41.97605       70.42664
C        -15.44158       41.21267       69.59252
O        -14.98580       42.55096       71.56992
H        -14.00920       40.16873       72.54763
H        -12.73786       40.71650       69.85126
H        -14.05325       42.80729       69.77882
H        -15.53379       41.85705       72.01974
H        -16.26635       41.89716       69.30314
H        -14.97196       40.81513       68.66721
H        -15.87135       40.36437       70.16617
N        -11.57570       43.01031       70.95018
C        -10.61076       43.90100       71.59796
C        -11.31948       45.20515       71.92750
O        -12.06659       45.71408       71.10367
C         -9.36339       44.14129       70.69414
C         -8.64393       42.79871       70.40430
C         -8.39626       45.14520       71.36625
C         -7.44567       42.92842       69.45912
H        -11.89938       43.28031       70.01012
H        -10.24480       43.46232       72.55338
H         -9.70424       44.58112       69.73053
H         -9.36218       42.09909       69.92636
H         -8.29583       42.34375       71.35622
H         -7.53264       45.38099       70.71472
H         -8.89594       46.11673       71.55399
H         -8.02250       44.74406       72.33280
H         -7.02086       41.92181       69.26250
H         -7.76154       43.37739       68.49403
H         -6.63643       43.54153       69.90476
N        -11.10231       45.80696       73.13137
C        -11.81399       46.99369       73.59726
C        -10.86855       48.17085       73.68785
O         -9.69816       48.02178       73.37784
C        -12.37296       46.72652       75.00680
C        -13.13593       45.45075       75.12190
O        -12.50942       44.29673       74.84116
O        -14.25814       45.43808       75.60087
H        -10.40030       45.39664       73.76371
H        -12.64311       47.25073       72.90307
H        -13.00085       47.57528       75.35203
H        -11.51579       46.62281       75.70948
N        -11.31270       49.38827       74.11026
C        -10.42210       50.52939       74.26277
C         -9.39901       50.29068       75.38406
O         -8.21944       50.41938       75.08298
C        -11.22273       51.84326       74.40993
C        -10.32229       53.05372       74.43767
C         -9.49735       53.35682       73.33826
C        -10.30619       53.89825       75.55984
C         -8.66871       54.48071       73.36663
C         -9.47616       55.02269       75.58281
C         -8.65775       55.31323       74.48790
H        -12.31719       49.51053       74.30830
H         -9.86936       50.64396       73.30418
H        -11.86856       51.83142       75.30024
H        -11.90597       51.94467       73.53850
H         -9.49538       52.72874       72.45653
H        -10.93408       53.68694       76.41656
H         -8.03684       54.70638       72.51729
H         -9.46835       55.66940       76.45006
H         -8.01648       56.18432       74.50703
N         -9.71999       49.90691       76.67122
C         -8.73369       49.63880       77.72652
C         -7.70491       48.54723       77.44026
O         -6.86746       48.30194       78.29741
C         -9.58504       49.14512       78.90589
C        -10.87540       49.88663       78.69944
C        -11.06575       49.75386       77.19219
H         -8.22340       50.60044       77.95597
H         -9.83302       48.06575       78.75987
H         -9.10962       49.26074       79.90349
H        -11.73154       49.52302       79.30654
H        -10.68658       50.95739       78.94366
H        -11.44903       48.75277       76.90718
H        -11.77345       50.54098       76.90247
N         -7.72829       47.82627       76.28798
C         -6.84818       46.70946       75.99040
C         -5.87916       47.12646       74.90097
O         -4.68120       46.97387       75.09471
C         -7.71355       45.49589       75.59367
C         -8.67673       45.11761       76.74130
C         -9.59981       43.97941       76.41813
O         -9.55085       43.40370       75.34342
O        -10.51635       43.60623       77.32996
H         -8.43989       48.02886       75.58190
H         -6.24600       46.41457       76.87964
H         -7.06004       44.63128       75.34916
H         -8.30454       45.75043       74.68899
H         -9.32103       45.98784       76.98757
H         -8.08949       44.84945       77.64590
N         -6.31928       47.73450       73.76294
C         -5.44114       48.25456       72.73585
H         -4.37210       48.04137       72.94262
H         -5.71416       47.81110       71.75682
H         -5.56943       49.35744       72.67667
H         -7.32319       47.89118       73.62908
Ca       -13.03575       42.58019       76.10956
O        -11.79817       39.07619       74.11828
H        -11.21856       39.10798       73.31888
H        -11.64460       38.17123       74.48963
O         -9.00556       40.68711       73.32353
H         -9.35383       41.06385       74.16934
H         -8.03308       40.58626       73.47643

Ca 1.0



