%chk=holoCaM-CaMKII.loop4.water2.frame157.chk
%nprocshared=20
%mem=10GB
%nosave
#b3lyp/svp scf=(tight,noincore,xqc) Test 
#IOP(5/87=12) Density=Current Pop=(MK,readradii) iop(6/33=2) iop(6/42=6)

holoCaM-CaMKII.loop4.water2.frame157 

   -3  1 
C         86.70304       86.70857       35.56038
C         86.48457       85.24183       35.38622
O         87.20998       84.62170       34.62058
H         87.53738       87.05517       34.91383
H         85.77839       87.25375       35.27891
H         86.95351       86.91922       36.62023
N         85.47706       84.61914       36.06032
C         85.20576       83.20006       35.92632
C         83.88275       82.99519       35.23276
O         82.88645       83.58636       35.62571
C         85.26409       82.49520       37.27817
C         85.21516       81.02193       37.03444
O         84.41425       80.31704       37.62196
O         86.08921       80.48481       36.15724
H         84.86640       85.17771       36.67683
H         85.99966       82.73792       35.29936
H         84.45954       82.83101       37.96972
H         86.24532       82.71404       37.75008
N         83.83109       82.17363       34.15050
C         82.70720       82.08971       33.23736
C         81.98516       80.73870       33.34006
O         80.94635       80.60318       32.71033
C         83.26179       82.39153       31.79773
C         84.19063       83.64574       31.75088
C         82.16693       82.50801       30.72523
C         83.54449       84.95526       32.20748
H         84.67096       81.63920       33.90924
H         81.95742       82.86395       33.50973
H         83.91349       81.53782       31.50148
H         84.57037       83.77900       30.71408
H         85.08712       83.47341       32.38597
H         82.63177       82.71245       29.73607
H         81.60645       81.56109       30.61393
H         81.45745       83.32567       30.96375
H         83.22535       84.89225       33.26614
H         84.29090       85.77460       32.13034
H         82.67322       85.21553       31.57542
N         82.44330       79.70367       34.11640
C         81.75030       78.41184       34.22157
C         81.36899       78.03543       35.66063
O         80.75931       76.99116       35.84486
C         82.59821       77.31950       33.54656
C         83.93101       77.12008       34.20255
O         84.00482       76.68881       35.47529
O         84.95436       77.33156       33.57496
H         83.33296       79.80810       34.62507
H         80.79445       78.44454       33.65457
H         82.75158       77.61323       32.48361
H         82.04996       76.35303       33.55098
N         81.64412       78.84792       36.71858
C         81.19113       78.60224       38.08147
C         81.85217       77.44465       38.80890
O         81.15129       76.63725       39.40117
H         82.12479       79.74222       36.55370
H         80.08462       78.49992       38.10108
H         81.44604       79.50392       38.68037
N         83.20685       77.38299       38.90277
C         83.94317       76.54398       39.85647
C         84.81972       77.42921       40.75859
O         85.57144       76.88454       41.55412
C         84.74520       75.40918       39.14785
C         85.72511       75.86822       38.11515
O         85.86271       77.17610       37.91885
O         86.32172       75.06923       37.41173
H         83.73853       78.04570       38.32640
H         83.24030       76.00775       40.53072
H         84.01020       74.75573       38.63185
H         85.27973       74.79360       39.90445
N         84.73110       78.80026       40.73841
C         85.50021       79.67372       41.61337
C         86.96182       79.80862       41.23843
O         87.67172       80.47945       41.97618
H         84.03483       79.26808       40.14405
H         85.39839       79.31692       42.66089
H         85.07311       80.69995       41.56737
N         87.48846       79.23816       40.11659
C         88.90177       79.32885       39.75052
C         89.04828       80.00327       38.39796
O         88.04964       80.14918       37.71666
C         89.48932       77.90379       39.70203
C         89.23302       77.14339       41.01690
C         89.69061       75.71206       40.94454
N         90.56693       75.22065       41.84970
O         89.23820       74.97657       40.07899
H         86.87355       78.70053       39.49429
H         89.45394       79.93474       40.50131
H         90.57825       77.94304       39.48287
H         88.98426       77.34876       38.88123
H         88.14405       77.10852       41.22106
H         89.72430       77.67813       41.85759
H         90.94023       75.81742       42.60186
H         90.85809       74.23285       41.81018
N         90.24283       80.48580       37.94986
C         90.39493       81.12906       36.64168
C         91.53559       80.46544       35.88620
O         92.68514       80.59871       36.28526
C         90.58736       82.66445       36.80952
C         90.90241       83.37111       35.47900
C         89.31156       83.29265       37.40205
H         91.06504       80.42950       38.57147
H         89.47015       80.99613       36.03642
H         91.43826       82.85008       37.50094
H         90.08055       83.22936       34.74843
H         91.03496       84.46141       35.64982
H         91.84806       82.99052       35.04169
H         89.44135       84.38628       37.54453
H         88.45104       83.13208       36.71540
H         89.06263       82.84783       38.38705
N         91.27002       79.70319       34.78778
C         92.29313       79.02096       33.99506
C         93.01622       80.04397       33.11446
O         92.56520       81.17884       33.04467
C         91.57100       77.92255       33.15396
C         92.42371       76.83387       32.53205
N         92.27427       75.54476       32.92148
O         93.21921       77.09097       31.64612
H         90.28289       79.55899       34.53589
H         92.98952       78.51583       34.70045
H         90.93723       78.39898       32.37391
H         90.87886       77.40395       33.85061
H         91.59625       75.28104       33.65115
H         92.83639       74.79959       32.48418
N         94.12273       79.71807       32.38565
C         94.71366       80.62410       31.39606
C         93.71954       80.92185       30.27988
O         93.78329       81.99231       29.69084
C         95.96802       79.98814       30.76350
C         96.59882       80.89112       29.72621
C         97.16477       82.12243       30.09754
C         96.60865       80.51256       28.37255
C         97.73382       82.95793       29.13093
C         97.17214       81.35189       27.40777
C         97.73896       82.57760       27.78452
O         98.28825       83.39558       26.86411
H         94.54504       78.79038       32.51953
H         94.99855       81.57179       31.90516
H         95.66065       79.02726       30.29260
H         96.71853       79.75457       31.54813
H         97.16698       82.43464       31.13420
H         96.16921       79.57331       28.06025
H         98.16964       83.90326       29.42879
H         97.16533       81.04900       26.36820
H         98.31157       83.16898       25.92330
N         92.79423       79.99247       29.91742
C         91.78114       80.20293       28.89640
C         90.91510       81.38309       29.30099
O         90.72264       82.29415       28.50883
C         90.96052       78.89580       28.73208
C         90.01724       78.91382       27.52278
C         89.35920       77.57126       27.34705
O         88.55930       77.07509       28.31039
O         89.55107       76.92146       26.33084
H         92.79518       79.09111       30.40703
H         92.27947       80.40598       27.92268
H         90.39472       78.66880       29.66387
H         91.68310       78.06539       28.56147
H         90.61027       79.14407       26.60991
H         89.23631       79.69222       27.64690
N         90.38976       81.43252       30.55652
C         89.53271       82.51247       31.03931
C         90.31504       83.77524       31.40415
O         89.68239       84.78395       31.68452
C         88.72154       82.00840       32.25318
C         87.88879       80.77121       31.86007
C         87.18781       80.15798       33.02498
O         85.98668       79.96651       32.98190
O         87.89161       79.73257       34.08738
H         90.59230       80.64326       31.18848
H         88.80528       82.76725       30.23677
H         88.04408       82.80746       32.62782
H         89.43065       81.73599       33.06588
H         88.54052       79.97291       31.45590
H         87.15688       81.05152       31.07137
N         91.67926       83.79617       31.44218
C         92.46939       84.96910       31.76390
H         93.16319       85.18349       30.92280
H         91.84614       85.86982       31.94076
H         93.07359       84.77073       32.67482
H         92.20230       82.93881       31.25166
Ca        86.38803       78.29032       36.10359
O         87.59577       76.15615       33.59956
H         87.80271       76.74647       32.83199
H         86.87121       75.56543       33.27301
O         89.25883       76.91627       36.02619
H         88.55223       76.60402       36.64409
H         89.56910       76.09115       35.57573

Ca 1.0



