%chk=holoCaM.loop1.water2.frame399.chk
%nprocshared=20
%mem=10GB
%nosave
#b3lyp/svp scf=(tight,noincore,xqc) Test 
#IOP(5/87=12) Density=Current Pop=(MK,readradii) iop(6/33=2) iop(6/42=6)

holoCaM.loop1.water2.frame399 

   0  1 
C        107.21562       78.33215       95.45783
C        108.63488       78.79955       95.37152
O        109.53502       77.97317       95.44046
H        106.66663       78.62391       94.53844
H        107.17546       77.22569       95.56042
H        106.73073       78.79144       96.34325
N        108.91664       80.12348       95.20049
C        110.28568       80.59987       95.09524
C        110.86667       80.77529       96.49494
O        110.36901       81.59675       97.25282
C        110.36692       81.90608       94.27495
C        111.79834       82.26931       93.97589
O        112.06299       83.29733       93.38306
O        112.77912       81.42181       94.33511
H        108.13782       80.79335       95.10442
H        110.85490       79.84272       94.51102
H        109.86815       82.72836       94.83222
H        109.84370       81.77140       93.30249
N        111.89425       79.98751       96.91453
C        112.40409       79.98041       98.28636
C        113.34598       81.13896       98.61595
O        113.76539       81.20905       99.76346
C        113.13182       78.64443       98.55816
C        112.17582       77.44494       98.43345
C        112.90992       76.12231       98.66655
C        111.93919       74.93962       98.55374
N        112.62637       73.67201       98.79369
H        112.23647       79.27362       96.25834
H        111.54065       80.02744       98.98848
H        113.54054       78.64365       99.59304
H        113.98005       78.53753       97.84594
H        111.71462       77.41568       97.42467
H        111.36168       77.55387       99.18393
H        113.36903       76.12767       99.67892
H        113.71542       76.01017       97.90707
H        111.48547       74.92792       97.53722
H        111.12256       75.05616       99.30057
H        111.94439       72.88689       98.68631
H        113.40084       73.54376       98.10700
H        113.02080       73.65405       99.76151
N        113.73319       82.07346       97.69862
C        114.65643       83.16693       98.01478
C        113.94920       84.49413       97.84930
O        113.88498       85.27022       98.79185
C        115.87731       83.16147       97.06824
C        116.64938       81.87847       97.05331
O        117.26598       81.50801       98.03880
O        116.67821       81.14629       95.92316
H        113.36428       82.01509       96.74168
H        115.03204       83.08737       99.05896
H        116.57034       83.98903       97.33416
H        115.54035       83.35889       96.03485
N        113.42975       84.82345       96.63610
C        112.81064       86.09129       96.31348
C        113.60168       86.78264       95.22689
O        113.96698       87.93652       95.40118
H        113.48673       84.13048       95.87868
H        112.73139       86.75690       97.20083
H        111.78348       85.89003       95.94235
N        113.90609       86.12379       94.07157
C        114.60273       86.72440       92.94262
C        113.74714       86.69321       91.67498
O        114.17082       87.27731       90.68793
C        115.98106       86.05210       92.74404
C        115.92262       84.55640       92.61659
O        116.59164       83.78399       93.49324
O        115.28902       84.03474       91.71814
H        113.63233       85.13836       93.98053
H        114.80124       87.79938       93.14521
H        116.61536       86.28716       93.62623
H        116.48087       86.47668       91.84696
N        112.53514       86.05849       91.62286
C        111.64001       86.11243       90.47988
C        111.49177       84.79150       89.75298
O        110.66709       84.74767       88.84915
H        112.18281       85.53782       92.43156
H        111.98288       86.85562       89.72863
H        110.64781       86.45298       90.84728
N        112.30090       83.71419       89.99412
C        112.29259       82.52100       89.14412
C        112.25950       81.21954       89.93361
O        112.33387       81.23060       91.15487
C        113.53786       82.53677       88.21679
C        113.53878       83.74028       87.26155
O        114.72822       82.48416       88.96326
H        113.03083       83.78898       90.71473
H        111.39007       82.52096       88.49340
H        113.52001       81.64052       87.56317
H        114.91400       83.39402       89.31102
H        113.57898       84.69867       87.82098
H        114.42523       83.68556       86.59545
H        112.62216       83.72826       86.63456
N        112.14988       80.04102       89.25443
C        112.15076       78.71148       89.85046
C        113.32136       77.90879       89.27482
O        113.42875       77.77187       88.06347
C        110.75287       78.04762       89.62775
C        109.71771       78.77016       90.54374
C        110.77204       76.54053       89.92919
C        108.29591       78.20684       90.49751
H        112.04513       80.08001       88.22829
H        112.30052       78.76718       90.94391
H        110.46725       78.14883       88.55746
H        109.67004       79.84412       90.26562
H        110.05602       78.70667       91.60375
H        109.79924       76.07189       89.67844
H        111.52855       76.01361       89.31187
H        110.97305       76.37170       90.99643
H        107.89025       78.25167       89.46697
H        108.26414       77.16184       90.87083
H        107.64576       78.80568       91.17100
N        114.21177       77.31187       90.12193
C        115.35251       76.47938       89.72311
C        115.07708       75.02850       90.08913
O        113.98549       74.74460       90.54116
C        116.64535       76.97772       90.42697
C        117.08142       78.35982       89.93288
O        116.50315       76.95409       91.82826
H        114.03676       77.40402       91.13226
H        115.50561       76.50537       88.62189
H        117.49032       76.30405       90.17599
H        116.00362       77.76429       92.10817
H        118.01014       78.66610       90.46155
H        117.29573       78.32022       88.84392
H        116.28832       79.11174       90.11662
N        115.99763       74.04113       89.88443
C        115.75249       72.62864       90.20985
C        115.67218       72.32070       91.71378
O        115.40821       71.17022       92.03565
C        116.81465       71.71704       89.54822
C        116.71479       71.77227       88.01748
O        118.09996       72.08934       89.97466
H        116.88580       74.29675       89.42873
H        114.77018       72.33628       89.77378
H        116.60833       70.66301       89.84980
H        118.70975       71.34459       89.73196
H        116.90168       72.79492       87.63155
H        117.45500       71.07985       87.56535
H        115.70072       71.44876       87.69528
N        115.82103       73.26982       92.68456
C        115.58794       73.00025       94.10898
C        114.23830       73.56722       94.54432
O        113.95173       73.59104       95.73013
C        116.77425       73.50863       94.97108
C        117.01950       75.03094       94.92152
C        118.16180       75.50503       95.83933
C        119.53167       74.91313       95.46787
N        120.59246       75.48947       96.29437
H        115.99402       74.24388       92.40674
H        115.51940       71.90877       94.30534
H        117.68367       72.97421       94.62840
H        116.58699       73.22209       96.02982
H        116.10281       75.55166       95.26080
H        117.25031       75.35155       93.88593
H        117.92372       75.25770       96.89715
H        118.22160       76.61237       95.75065
H        119.75072       75.12550       94.39820
H        119.52228       73.81232       95.61658
H        120.65423       76.52079       96.13064
H        120.40621       75.30316       97.30654
H        121.50580       75.05282       96.03211
N        113.35362       74.02851       93.61742
C        112.08438       74.67449       93.89527
C        110.97033       73.96840       93.12992
O        110.01550       73.52732       93.75336
C        112.22846       76.15962       93.50817
C        113.29920       76.81427       94.39910
C        113.56246       78.25637       94.12813
O        112.97187       78.86273       93.25268
O        114.47701       78.89079       94.88063
H        113.60633       73.96973       92.63488
H        111.83938       74.64251       94.97988
H        111.25993       76.68769       93.63972
H        112.55213       76.24176       92.45297
H        114.26459       76.29784       94.25035
H        112.99147       76.71732       95.46015
N        111.03634       73.79685       91.77827
C        110.02384       73.09689       91.01798
H        109.05124       73.62448       91.09717
H        110.31893       73.05827       89.94554
H        109.92291       72.05447       91.38717
H        111.84011       74.15670       91.25749
Ca       115.01839       81.54534       94.43218
O        117.26580       79.39228       93.74092
H        117.05414       78.65866       94.37069
H        118.08557       79.09223       93.27547
O        116.78175       81.26498       91.56238
H        117.51437       81.19340       90.90056
H        116.00519       81.58144       91.03842

Ca 1.0



