%chk=holoCaM.loop2.water2.frame105.chk
%nprocshared=20
%mem=10GB
%nosave
#b3lyp/svp scf=(tight,noincore,xqc) Test 
#IOP(5/87=12) Density=Current Pop=(MK,readradii) iop(6/33=2) iop(6/42=6)

holoCaM.loop2.water2.frame105 

   -2  1 
C         76.80647       26.68756       27.31401
C         75.49177       27.16285       26.75764
O         75.39776       27.38450       25.56025
H         77.59682       27.44238       27.12684
H         76.74395       26.50698       28.40908
H         77.09104       25.73044       26.82687
N         74.41638       27.30882       27.57772
C         73.08023       27.66708       27.11236
C         73.02438       29.08979       26.55523
O         73.46473       30.00895       27.23115
C         72.08300       27.52159       28.28254
C         70.64861       27.56576       27.84428
O         69.66846       27.48360       28.76248
O         70.36005       27.61647       26.66157
H         74.54331       27.08915       28.57838
H         72.78551       26.92982       26.33373
H         72.27717       28.31433       29.03667
H         72.22353       26.53167       28.76796
N         72.45249       29.33857       25.33914
C         72.38074       30.65649       24.71038
C         70.94186       31.14395       24.45912
O         70.80285       32.17989       23.82262
C         73.14883       30.58208       23.38264
H         72.05942       28.54663       24.81567
H         72.88462       31.42508       25.33622
H         73.17212       31.57476       22.88361
H         74.19945       30.27037       23.56885
H         72.67731       29.84684       22.69532
N         69.83124       30.49748       24.93963
C         68.45296       30.93349       24.62705
C         67.32336       30.31724       25.49047
O         66.17932       30.67530       25.24456
C         68.15949       30.64060       23.12932
C         68.24169       29.16696       22.83350
O         68.42282       28.30505       23.84899
O         68.21780       28.76170       21.68278
H         69.99186       29.67930       25.52301
H         68.38790       32.02968       24.80458
H         68.91817       31.15860       22.50647
H         67.16260       31.02577       22.82616
N         67.52992       29.43463       26.51501
C         66.46296       28.92391       27.36901
C         65.50394       27.91817       26.74135
O         64.60118       27.49906       27.45215
H         68.47667       29.16895       26.78836
H         65.88951       29.78495       27.77465
H         66.92893       28.40022       28.23253
N         65.61466       27.46002       25.45906
C         64.67454       26.49550       24.87463
C         64.72917       25.08386       25.49245
O         63.94093       24.24665       25.07449
C         64.84586       26.41363       23.33747
C         66.14488       25.82674       22.85006
N         66.32917       25.63509       21.52598
O         67.02516       25.50944       23.63287
H         66.35059       27.84567       24.86208
H         63.64907       26.89713       25.03287
H         64.73376       27.42974       22.89981
H         64.02498       25.78230       22.93318
H         65.59804       25.89023       20.84663
H         67.19693       25.21206       21.18038
N         65.60348       24.74340       26.48472
C         65.59559       23.45702       27.17039
C         66.52113       22.40125       26.58459
O         66.62302       21.34857       27.19852
H         66.21161       25.46357       26.88170
H         64.55805       23.06530       27.25652
H         65.94464       23.63621       28.21018
N         67.20761       22.57524       25.41737
C         68.08850       21.55581       24.83696
C         69.47056       22.11415       24.50526
O         69.71253       23.30236       24.66097
C         67.43251       20.98348       23.54764
C         66.19491       20.14840       23.87635
O         67.07282       22.01665       22.66540
H         67.06551       23.44112       24.88570
H         68.24943       20.71385       25.54611
H         68.11494       20.27466       23.02831
H         67.90843       22.33916       22.23806
H         65.76696       19.72928       22.94057
H         66.47957       19.29770       24.53405
H         65.42031       20.75768       24.38458
N         70.40623       21.28040       23.96166
C         71.67331       21.71058       23.38568
C         71.47409       21.77827       21.88214
O         71.06576       20.79736       21.27510
C         72.83488       20.74426       23.79660
C         73.27435       20.94008       25.27499
C         74.06050       20.83895       22.86117
C         74.02333       22.25406       25.56175
H         70.14998       20.29272       23.81502
H         71.93435       22.72751       23.71436
H         72.45850       19.70262       23.68867
H         73.96591       20.11342       25.54925
H         72.38717       20.87237       25.93941
H         74.47141       21.86686       22.82514
H         74.85449       20.13686       23.19477
H         73.78744       20.54489       21.82635
H         74.96418       22.32084       24.97549
H         73.40233       23.13890       25.34050
H         74.30681       22.29718       26.63370
N         71.79063       22.92595       21.21876
C         71.68705       23.09992       19.77745
C         73.05341       22.92978       19.15507
O         74.00173       22.65307       19.86865
C         71.15204       24.51376       19.46891
C         69.79665       24.74461       20.04883
O         69.61060       25.74420       20.92919
O         68.85459       24.04944       19.70470
H         72.21755       23.69671       21.75002
H         71.01716       22.33209       19.33102
H         71.07466       24.67440       18.37487
H         71.85766       25.27130       19.88161
N         73.23216       23.06163       17.81451
C         74.53434       22.92216       17.17969
C         75.56021       23.94814       17.67446
O         76.61977       23.50610       18.09578
C         74.40784       22.97798       15.64486
C         75.76483       22.83843       14.99315
C         76.55665       21.69659       15.21955
C         76.26459       23.86872       14.18000
C         77.82941       21.59779       14.65348
C         77.53596       23.76166       13.60992
C         78.31927       22.62950       13.84970
H         72.40938       23.25325       17.22216
H         74.91701       21.90746       17.42853
H         73.93122       23.93375       15.34393
H         73.74664       22.15341       15.30063
H         76.19926       20.88843       15.84469
H         75.67534       24.75827       13.99465
H         78.43738       20.72271       14.84342
H         77.91646       24.56066       12.98774
H         79.30660       22.55215       13.41452
N         75.36941       25.30768       17.65389
C         76.39422       26.26696       18.05973
C         76.83546       26.05287       19.49672
O         78.01962       26.18145       19.77532
C         75.73497       27.63230       17.80584
C         74.26043       27.34062       17.96949
C         74.13929       25.98287       17.28312
H         77.30209       26.21032       17.41872
H         76.13805       28.48095       18.39969
H         75.86818       27.87682       16.72710
H         74.05280       27.22015       19.05386
H         73.57155       28.11833       17.57553
H         73.21962       25.50560       17.66100
H         74.11062       26.09436       16.17789
N         75.95024       25.66690       20.44815
C         76.31588       25.41468       21.83865
C         77.27173       24.24000       21.91944
O         78.35979       24.38798       22.45620
C         75.05031       25.12932       22.66584
C         74.09480       26.33054       22.61052
C         72.77956       26.05692       23.23774
O         72.55258       25.04132       23.86755
O         71.80419       26.93455       23.01857
H         74.97606       25.51751       20.15488
H         76.79446       26.32256       22.27116
H         75.31531       24.91651       23.72497
H         74.53475       24.23927       22.24536
H         73.84896       26.58251       21.56281
H         74.54948       27.23430       23.06728
N         76.92145       23.04174       21.37753
C         77.75428       21.86036       21.38164
H         78.71591       22.02393       21.90788
H         77.20675       21.03274       21.88011
H         77.96458       21.56260       20.33214
H         76.01422       22.96038       20.91571
Ca        69.73043       26.55989       23.65691
O         68.64723       25.38909       26.46075
H         68.24705       26.29274       26.39687
H         68.56592       25.14672       27.41769
O         71.25409       24.29141       26.92745
H         71.85127       23.77772       27.52506
H         71.86642       24.77401       26.32018

Ca 1.0



