%chk=holoCaM-CaMKII.loop3.water3.frame36.chk
%nprocshared=20
%mem=10GB
%nosave
#b3lyp/svp scf=(tight,noincore,xqc) Test 
#IOP(5/87=12) Density=Current Pop=(MK,readradii) iop(6/33=2) iop(6/42=6)

holoCaM-CaMKII.loop3.water3.frame36 

   0  1 
C         18.25674       69.15732       15.17022
C         17.44844       68.59445       14.04261
O         16.55724       67.79644       14.29742
H         19.01794       69.87653       14.80139
H         17.58261       69.68695       15.87556
H         18.77272       68.33181       15.70197
N         17.69205       68.97908       12.75911
C         16.90276       68.49288       11.63921
C         17.07957       66.99158       11.48608
O         18.18696       66.54515       11.21930
C         17.29916       69.24628       10.35829
C         16.36584       68.97658        9.22829
O         16.43443       69.66652        8.22776
O         15.35387       68.10494        9.37126
H         18.43685       69.67144       12.58286
H         15.83737       68.74229       11.85726
H         18.34615       69.03145       10.05742
H         17.21090       70.33483       10.57594
N         16.02720       66.15166       11.70305
C         16.18380       64.70454       11.80949
C         16.07001       63.99107       10.46584
O         16.54483       62.86774       10.37430
C         15.19110       64.17408       12.86329
C         15.41084       62.71142       13.26500
C         14.46446       62.33864       14.41765
C         14.67680       60.91086       14.94358
N         14.35830       59.89298       13.94175
H         15.13805       66.57478       12.00283
H         17.20363       64.51213       12.21330
H         14.15130       64.31085       12.49765
H         15.32396       64.79518       13.77811
H         16.46118       62.58260       13.60689
H         15.22672       62.05670       12.39007
H         13.40700       62.46465       14.09736
H         14.65275       63.03406       15.26578
H         14.00898       60.76779       15.82202
H         15.72704       60.78659       15.28962
H         15.02365       59.94154       13.13837
H         14.44665       58.94857       14.38130
H         13.37639       60.01656       13.60342
N         15.46765       64.56801        9.38258
C         15.42623       63.94385        8.05687
C         16.13630       64.79425        7.00369
O         16.18813       64.37383        5.85570
C         13.98014       63.58898        7.63898
C         13.03284       64.74298        7.46057
O         11.89442       64.52261        7.08031
O         13.41041       66.00916        7.70667
H         15.02995       65.49093        9.49750
H         15.96865       62.97324        8.07699
H         13.54888       62.89723        8.39490
H         14.02635       63.04032        6.67188
N         16.76078       65.96604        7.32393
C         17.56079       66.72984        6.38288
C         16.80261       67.42958        5.27029
O         17.47935       68.03933        4.45348
H         16.77074       66.29200        8.29781
H         18.32350       66.05234        5.94052
H         18.10580       67.52138        6.94270
N         15.43837       67.42431        5.14596
C         14.77811       68.10824        4.02747
C         14.98852       69.62337        4.04282
O         14.70851       70.26069        3.03712
C         13.26456       67.81134        3.95706
C         12.48328       68.50550        5.04812
N         11.56076       69.44960        4.74564
O         12.69417       68.22578        6.21425
H         14.87105       66.89983        5.82302
H         15.23551       67.69139        3.10179
H         13.08663       66.71492        3.99663
H         12.89508       68.17103        2.97219
H         11.37107       69.71255        3.76765
H         11.04015       69.93055        5.49418
N         15.44138       70.26465        5.15829
C         15.71701       71.68801        5.22840
C         14.93409       72.41875        6.30576
O         15.24792       73.58298        6.51006
H         15.63220       69.71773        6.00264
H         15.53583       72.19678        4.25688
H         16.79790       71.79603        5.46384
N         13.90147       71.85458        7.01307
C         13.16964       72.58854        8.05069
C         13.18568       71.81397        9.39236
O         12.23514       70.78325        9.34983
C         11.70841       72.87490        7.63405
C         11.58535       73.82991        6.47531
C         11.98559       73.46545        5.17845
C         11.03800       75.10622        6.69026
C         11.84445       74.36707        4.11902
C         10.90045       76.00476        5.63248
C         11.30264       75.63807        4.34152
O         11.16890       76.49587        3.31068
H         13.60304       70.89332        6.79522
H         13.66047       73.56876        8.23498
H         11.20594       73.32847        8.51694
H         11.16380       71.93558        7.39446
H         12.39491       72.48383        4.97981
H         10.71887       75.41042        7.67985
H         12.15236       74.07526        3.12314
H         10.47866       76.98408        5.81954
H         10.79310       77.38047        3.42625
N         12.88933       72.71393       10.51886
C         12.80742       72.05166       11.84148
C         11.35779       72.14518       12.27923
O         10.82139       73.24436       12.30477
C         13.72180       72.72612       12.92593
C         15.22712       72.67395       12.53916
C         13.51072       72.03551       14.29771
C         16.12405       73.46298       13.50248
H         13.52636       73.54134       10.51763
H         13.12295       70.98383       11.77998
H         13.41827       73.79292       13.01761
H         15.38325       73.12702       11.54109
H         15.57554       71.61905       12.48924
H         14.08186       72.53174       15.10522
H         12.45148       72.08639       14.61735
H         13.81282       70.96636       14.24787
H         17.17258       73.44018       13.13959
H         15.79243       74.52275       13.55285
H         16.12287       73.03280       14.52348
N         10.68319       71.03800       12.69691
C          9.31036       71.07486       13.19212
C          9.28859       70.79553       14.68558
O         10.33639       70.59035       15.27256
C          8.44963       70.07491       12.40346
O          8.90405       68.75926       12.59014
H         11.18146       70.13844       12.72539
H          8.86959       72.08537       13.05192
H          8.45105       70.35188       11.32393
H          7.38972       70.12731       12.72688
H          9.43692       68.51619       11.78901
N          8.11529       70.81196       15.37719
C          8.03616       70.59619       16.82028
C          8.56034       69.22735       17.21159
O          9.42496       69.14689       18.07381
C          6.58685       70.74413       17.29558
H          7.24634       71.00830       14.85883
H          8.63121       71.38006       17.34123
H          5.92892       69.99308       16.80917
H          6.53252       70.61179       18.39760
H          6.21200       71.76031       17.04851
N          8.08391       68.10586       16.60361
C          8.50788       66.75066       16.94435
C         10.01203       66.58844       16.85887
O         10.61095       66.11512       17.81436
C          7.83559       65.74070       16.00611
H          7.38710       68.22745       15.85145
H          8.18180       66.51471       17.98220
H          8.13399       64.70570       16.27908
H          6.73101       65.81973       16.08973
H          8.12656       65.92915       14.94979
N         10.68675       66.97583       15.74225
C         12.13056       66.81828       15.58010
C         12.87024       67.51556       16.71027
O         13.62611       66.86072       17.41545
C         12.58886       67.34640       14.19971
C         11.93651       66.55562       13.04655
C         12.38565       67.04638       11.70264
O         12.16104       68.31996       11.33639
O         12.92191       66.28246       10.91785
H         10.13943       67.41432       14.98803
H         12.38369       65.73424       15.61999
H         13.69306       67.23496       14.12191
H         12.33965       68.42628       14.10839
H         10.83389       66.65067       13.07418
H         12.18760       65.47873       13.15444
N         12.66285       68.83248       16.97374
C         13.29118       69.51173       18.08547
H         14.39432       69.50189       17.96614
H         12.94212       70.56581       18.12971
H         13.01377       69.01255       19.03935
H         12.01285       69.36396       16.38671
Ca        13.44766       69.00550        8.76932
O          9.76884       67.04004        6.34705
H         10.08729       66.62708        5.50553
H         10.50845       66.89637        6.98903
O          9.76711       69.19126        8.78064
H          9.67343       70.06492        9.23615
H          9.45215       69.36261        7.85804
O         10.42758       65.61340        9.42476
H         10.84664       64.74839        9.66348
H          9.66167       65.69870       10.04529

Ca 1.0



