%chk=holoCaM-CaMKII.loop3.water2.frame251.chk
%nprocshared=20
%mem=10GB
%nosave
#b3lyp/svp scf=(tight,noincore,xqc) Test 
#IOP(5/87=12) Density=Current Pop=(MK,readradii) iop(6/33=2) iop(6/42=6)

holoCaM-CaMKII.loop3.water2.frame251 

   0  1 
C         80.99567       12.72146       67.55613
C         79.67538       12.87739       68.24864
O         78.67968       12.34223       67.78232
H         81.72484       12.24694       68.24600
H         80.89521       12.09227       66.64712
H         81.37648       13.72203       67.25971
N         79.60091       13.61293       69.38913
C         78.35996       13.83707       70.11839
C         77.37114       14.59344       69.24381
O         77.73789       15.58695       68.63191
C         78.65950       14.58479       71.43473
C         77.47708       14.73195       72.36115
O         76.38897       14.25379       72.08699
O         77.63300       15.38090       73.52894
H         80.47333       14.02923       69.75288
H         77.92633       12.86064       70.40942
H         79.07222       15.57669       71.19286
H         79.43550       14.02304       71.99813
N         76.08093       14.16729       69.16885
C         75.03519       14.78254       68.35566
C         74.94737       16.28902       68.57844
O         75.00754       17.01906       67.59900
C         73.70345       14.04510       68.63219
C         72.53178       14.52580       67.76754
C         71.32919       13.58047       67.92128
C         70.14076       14.04415       67.06930
N         69.04206       13.07969       67.13315
H         75.82367       13.35239       69.74455
H         75.28305       14.61730       67.28289
H         73.42696       14.12909       69.70573
H         73.87922       12.96912       68.40386
H         72.83891       14.52383       66.69924
H         72.25381       15.56112       68.06240
H         71.01699       13.52304       68.98728
H         71.63455       12.56347       67.58744
H         70.46017       14.15362       66.00917
H         69.78992       15.03437       67.43589
H         68.72451       12.95218       68.12125
H         68.24170       13.43354       66.56079
H         69.35182       12.16008       66.74148
N         74.87120       16.82766       69.82778
C         74.85026       18.27376       70.08351
C         76.14221       18.77340       70.72894
O         76.22405       19.96720       70.98589
C         73.57845       18.67426       70.87108
C         73.31910       17.78257       72.04132
O         74.20546       17.64912       73.03753
O         72.33203       17.06292       72.03171
H         74.87784       16.18454       70.63429
H         74.79946       18.84487       69.13097
H         72.71342       18.56259       70.18046
H         73.61792       19.73838       71.18677
N         77.23025       17.96779       70.92593
C         78.52116       18.48793       71.36634
C         78.54230       19.00077       72.78894
O         79.55087       19.57876       73.16988
H         77.18200       16.97751       70.66718
H         78.80894       19.31433       70.67898
H         79.30748       17.71627       71.27624
N         77.47262       18.87290       73.62363
C         77.40664       19.55791       74.90921
C         78.35883       19.02342       75.97704
O         78.43477       19.65636       77.02085
C         75.95430       19.57934       75.42719
C         75.50449       18.26140       76.00526
N         75.00928       18.20751       77.26039
O         75.58310       17.23775       75.34610
H         76.63592       18.38300       73.28430
H         77.66820       20.61995       74.70081
H         75.28083       19.87318       74.59169
H         75.86258       20.36347       76.20843
H         74.92427       19.05562       77.83917
H         74.68893       17.31234       77.64474
N         79.09542       17.88017       75.81673
C         80.02730       17.39835       76.83288
C         79.72397       16.00895       77.36720
O         80.47841       15.56784       78.22260
H         79.02276       17.34193       74.94185
H         80.05499       18.08205       77.70756
H         81.04673       17.38465       76.39189
N         78.68362       15.24509       76.92002
C         78.41352       13.89271       77.41830
C         77.47917       13.14508       76.47025
O         76.44576       13.67200       76.08310
C         78.00996       13.87231       78.91607
C         76.91731       14.81837       79.36478
C         77.24855       15.89105       80.21672
C         75.57459       14.63072       79.00189
C         76.26382       16.76088       80.68650
C         74.58524       15.49848       79.48450
C         74.92948       16.56951       80.32535
O         73.99139       17.41904       80.79101
H         78.08516       15.61627       76.16920
H         79.36653       13.31941       77.38039
H         78.92676       14.13547       79.48380
H         77.76236       12.83527       79.23037
H         78.27396       16.05802       80.52354
H         75.28754       13.80577       78.36722
H         76.54002       17.58139       81.33789
H         73.55182       15.34198       79.20283
H         73.05520       17.33052       80.56401
N         77.85862       11.91674       75.99751
C         77.21250       11.19924       74.89962
C         76.54562        9.91388       75.38909
O         77.11252        9.20860       76.21190
C         78.25219       10.94505       73.75497
C         77.53983       10.45017       72.46964
C         79.39462        9.99346       74.17531
C         78.48223       10.22800       71.28263
H         78.69377       11.48345       76.41363
H         76.42323       11.84666       74.46303
H         78.71320       11.92822       73.50695
H         76.80151       11.22671       72.17316
H         76.99587        9.50120       72.65666
H         79.94081       10.36900       75.06084
H         79.00811        8.97602       74.38870
H         80.15956        9.92014       73.37659
H         79.10526       11.12444       71.09503
H         79.15433        9.36487       71.46146
H         77.88504       10.00733       70.37383
N         75.32961        9.55034       74.88592
C         74.55412        8.38120       75.29358
C         74.40870        7.39887       74.13224
O         75.02798        7.60717       73.10384
C         73.18788        8.86422       75.81335
O         72.45545        9.49816       74.79606
H         74.91852       10.13717       74.15202
H         75.05747        7.84105       76.12474
H         73.34582        9.54796       76.68134
H         72.58537        8.01989       76.20448
H         72.51095       10.47558       74.95912
N         73.63369        6.27999       74.24069
C         73.53514        5.25067       73.20212
C         72.99404        5.76683       71.87523
O         73.67679        5.62080       70.87098
C         72.64844        4.09574       73.68528
H         73.12522        6.12611       75.12399
H         74.55234        4.83248       73.02962
H         73.06386        3.66373       74.61990
H         71.61356        4.44606       73.88774
H         72.60989        3.29416       72.91645
N         71.76338        6.34861       71.78780
C         71.17025        6.79752       70.52589
C         72.06444        7.78985       69.81894
O         72.31619        7.63337       68.63202
C         69.80374        7.44531       70.77846
H         71.22467        6.47600       72.65823
H         71.00253        5.92269       69.85798
H         69.90167        8.33474       71.43725
H         69.34997        7.76491       69.81455
H         69.11889        6.71490       71.25817
N         72.61246        8.81820       70.51657
C         73.49660        9.81952       69.93316
C         74.66798        9.15721       69.22363
O         74.88005        9.43163       68.05079
C         73.99998       10.78538       71.02532
C         72.84863       11.56333       71.69171
C         73.37624       12.58405       72.64955
O         74.03720       12.26225       73.61891
O         73.14678       13.87819       72.41151
H         72.41086        8.85782       71.52588
H         72.93213       10.41914       69.18314
H         74.68745       11.51464       70.54900
H         74.56750       10.22239       71.79592
H         72.15741       10.89445       72.24162
H         72.26912       12.08756       70.90118
N         75.43460        8.23442       69.86463
C         76.52782        7.51307       69.24670
H         77.45433        7.67029       69.83577
H         76.29219        6.42743       69.24613
H         76.71049        7.83416       68.20054
H         75.20902        7.99786       70.83311
Ca        74.19196       15.48605       73.55831
O         72.47337       16.68019       76.04455
H         71.66305       16.64838       76.61205
H         72.13987       16.52312       75.12602
O         73.33092       13.56719       76.27245
H         72.73713       13.92785       76.97766
H         73.71025       12.74094       76.66502

Ca 1.0



