%chk=holoCaM.loop4.water3.frame142.chk
%nprocshared=20
%mem=10GB
%nosave
#b3lyp/svp scf=(tight,noincore,xqc) Test 
#IOP(5/87=12) Density=Current Pop=(MK,readradii) iop(6/33=2) iop(6/42=6)

holoCaM.loop4.water3.frame142 

   -3  1 
C         30.84805      108.89841        8.83572
C         30.29066      107.78459        9.67042
O         30.96105      106.77478        9.82336
H         31.85874      108.63354        8.45443
H         30.18068      109.10667        7.97553
H         30.94223      109.81084        9.46221
N         29.06382      107.90956       10.25760
C         28.50243      106.91077       11.16806
C         27.07764      107.28705       11.55534
O         26.87811      108.35114       12.12452
C         29.41033      106.79608       12.41920
C         28.90716      105.91642       13.53483
O         28.55007      104.63090       13.34655
O         28.85074      106.37441       14.66462
H         28.52203      108.76576       10.06034
H         28.47659      105.93871       10.64107
H         29.57425      107.81606       12.83430
H         30.39999      106.40220       12.12098
N         26.03699      106.44594       11.26676
C         24.63859      106.73624       11.57909
C         24.03329      105.73956       12.57818
O         22.90911      105.98111       12.99526
C         23.78960      106.84433       10.26370
C         23.70147      105.50088        9.48285
C         24.34696      107.97695        9.37901
C         22.85313      105.57263        8.20558
H         26.24426      105.56632       10.78715
H         24.57697      107.72379       12.08528
H         22.75451      107.13451       10.55167
H         23.24737      104.73123       10.14290
H         24.70874      105.15296        9.19032
H         24.38996      108.92487        9.95490
H         25.36616      107.73184        9.01186
H         23.69086      108.16713        8.50535
H         23.31074      106.24539        7.45090
H         22.79104      104.56741        7.73914
H         21.82361      105.91811        8.43488
N         24.68314      104.60691       12.99897
C         24.08972      103.64110       13.93698
C         25.04529      103.16651       15.05013
O         24.63169      102.33559       15.84721
C         23.48291      102.45228       13.15592
C         24.45172      101.64468       12.34249
O         25.75033      101.97393       12.28532
O         24.05031      100.68128       11.71024
H         25.59160      104.37659       12.57917
H         23.22327      104.10581       14.45646
H         22.70720      102.84671       12.46388
H         22.97701      101.77290       13.87645
N         26.30853      103.66241       15.19896
C         27.22453      103.28502       16.27752
C         27.77724      101.86105       16.24014
O         28.51986      101.51889       17.14919
H         26.60809      104.41566       14.57609
H         26.71083      103.44687       17.24978
H         28.10440      103.96386       16.24748
N         27.46945      100.97487       15.25407
C         27.92211       99.58094       15.24266
C         29.44053       99.38215       15.17369
O         29.95191       98.61442       15.97850
C         27.19592       98.76245       14.14241
C         27.25961       99.26818       12.72409
O         27.86808      100.42121       12.40352
O         26.68494       98.64432       11.84877
H         26.83592      101.28358       14.50879
H         27.58839       99.10024       16.19086
H         26.11713       98.72765       14.40642
H         27.58311       97.71945       14.16817
N         30.21515       99.98038       14.22672
C         31.62328       99.66806       14.00106
C         31.88651       99.20830       12.56885
O         33.02616       98.89820       12.26017
H         29.78827      100.68767       13.62563
H         31.97293       98.86730       14.68880
H         32.23517      100.57359       14.19732
N         30.88373       99.15428       11.64100
C         31.03269       98.73167       10.25479
C         30.67344       99.88914        9.32846
O         30.33247      100.96023        9.80486
C         30.04048       97.57640        9.98488
C         30.21725       96.37918       10.92640
C         29.21534       95.29771       10.60252
N         27.88416       95.52770       10.70442
O         29.61108       94.19864       10.24588
H         29.93719       99.42074       11.90541
H         32.07296       98.40142       10.04432
H         30.15206       97.21706        8.94005
H         29.00819       97.97306       10.10338
H         30.07007       96.69162       11.98286
H         31.24951       95.98253       10.81468
H         27.52655       96.44158       11.01051
H         27.20337       94.78777       10.47848
N         30.68327       99.70904        7.97444
C         30.20735      100.70854        7.02319
C         29.00920      100.13321        6.27750
O         29.13881       99.07181        5.68752
C         31.35569      101.17053        6.07179
C         31.97359      100.04824        5.21840
C         30.87439      102.30627        5.15248
H         30.99439       98.80233        7.60206
H         29.87738      101.62135        7.55863
H         32.16760      101.58526        6.71006
H         32.80948      100.45603        4.61020
H         32.39258       99.24486        5.85661
H         31.23402       99.61308        4.51623
H         31.71138      102.68082        4.52555
H         30.06380      101.95677        4.47876
H         30.49778      103.15688        5.75767
N         27.81620      100.80415        6.23484
C         26.67883      100.33395        5.44066
C         26.56304      101.17823        4.18124
O         27.35910      102.08479        4.00508
C         25.38232      100.26641        6.28277
C         24.84141      101.60430        6.72596
N         24.65294      101.88058        8.03659
O         24.52734      102.43399        5.88807
H         27.74079      101.72039        6.69816
H         26.87052       99.29867        5.08659
H         25.57051       99.61569        7.16457
H         24.58869       99.77765        5.67951
H         24.87107      101.18669        8.76246
H         24.26623      102.78870        8.32888
N         25.63992      100.89176        3.21814
C         25.63912      101.57515        1.92568
C         25.45944      103.08195        2.04860
O         26.24093      103.82045        1.46488
C         24.63397      100.96735        0.91702
C         23.18403      101.38252        1.06738
C         22.60675      102.18698        0.06631
C         22.39276      100.98702        2.16020
C         21.27762      102.59673        0.15740
C         21.05481      101.39487        2.24542
C         20.49529      102.20312        1.24848
O         19.20975      102.59680        1.34819
H         24.98884      100.11189        3.37677
H         26.63656      101.37982        1.46827
H         24.72326       99.85970        0.89906
H         24.97991      101.31919       -0.08030
H         23.18845      102.50730       -0.78948
H         22.79736      100.36529        2.94455
H         20.85951      103.22058       -0.62281
H         20.45272      101.08889        3.09137
H         18.79298      103.15964        0.67932
N         24.46474      103.60252        2.82111
C         24.22009      105.03540        2.98520
C         25.46892      105.74918        3.45885
O         25.83033      106.76847        2.88814
C         23.09086      105.30172        4.01174
C         21.73495      104.73154        3.57422
C         20.65843      105.07486        4.56262
O         20.74435      104.64346        5.83536
O         19.69099      105.73184        4.21311
H         23.87794      102.93900        3.34453
H         23.90653      105.47649        2.01249
H         22.97504      106.40359        4.12339
H         23.37127      104.88189        5.00365
H         21.78559      103.63123        3.50368
H         21.46904      105.14199        2.57564
N         26.18064      105.24818        4.50216
C         27.35538      105.89782        5.06819
C         28.42755      106.09952        4.01341
O         28.80956      107.23518        3.76793
C         27.94279      105.06306        6.22308
C         26.94948      104.79306        7.36277
C         27.58501      104.00628        8.46838
O         28.77741      103.74820        8.45917
O         26.85320      103.65710        9.53215
H         25.85921      104.35815        4.89955
H         27.05059      106.88903        5.47508
H         28.82159      105.60882        6.63510
H         28.28363      104.07982        5.83735
H         26.07732      104.21800        7.00828
H         26.58504      105.75722        7.77778
N         28.95692      105.03235        3.35266
C         29.98708      105.13567        2.34243
H         30.87301      104.54957        2.66555
H         29.60555      104.71196        1.39009
H         30.30235      106.18434        2.16435
H         28.61700      104.08925        3.57081
Ca        28.05498      103.62049       11.41113
O         27.39358      100.61151        9.45363
H         26.68045      100.80956       10.10952
H         27.26794       99.65453        9.23600
O         31.06713      103.80537       10.20013
H         31.77279      103.38769       10.75317
H         30.53790      104.34144       10.84077
O         30.65357      102.96215       13.21492
H         30.18110      102.90178       14.08362
H         31.60976      102.87971       13.44860

Ca 1.0



