%chk=holoCaM.loop3.water2.frame368.chk
%nprocshared=20
%mem=10GB
%nosave
#b3lyp/svp scf=(tight,noincore,xqc) Test 
#IOP(5/87=12) Density=Current Pop=(MK,readradii) iop(6/33=2) iop(6/42=6)

holoCaM.loop3.water2.frame368 

   0  1 
C          7.92622      109.19942       51.67136
C          8.85912      109.26682       50.50433
O          9.17570      110.35861       50.05177
H          7.02132      108.62196       51.39186
H          8.43809      108.69680       52.51914
H          7.62413      110.21958       51.99015
N          9.36689      108.12031       49.97571
C         10.32610      108.13383       48.88549
C          9.68775      108.69746       47.61714
O          8.71149      108.14025       47.13435
C         10.88517      106.72073       48.64085
C         12.01609      106.76316       47.66708
O         12.51457      105.73287       47.26204
O         12.47067      107.94125       47.22010
H          9.09773      107.21896       50.40066
H         11.17501      108.77532       49.20800
H         10.07595      106.06842       48.24559
H         11.26946      106.28075       49.58612
N         10.17470      109.84115       47.05966
C          9.51805      110.54284       45.96077
C          9.59663      109.80972       44.62166
O          8.64114      109.90982       43.86473
C         10.06375      111.98287       45.87506
C          9.17537      112.92637       45.05089
C          9.67375      114.37184       45.18894
C          8.73779      115.36293       44.48774
N          9.21259      116.73568       44.66321
H         10.98183      110.29272       47.51705
H          8.44718      110.64816       46.24847
H         11.10731      111.98862       45.49773
H         10.06619      112.38674       46.91304
H          8.13847      112.87658       45.45223
H          9.16101      112.62110       43.98274
H         10.69847      114.45344       44.76579
H          9.71250      114.64083       46.26837
H          7.71601      115.27541       44.92160
H          8.68198      115.12437       43.40314
H          9.25060      116.97657       45.68087
H         10.16332      116.84389       44.24122
H          8.55208      117.39162       44.18749
N         10.69271      109.07227       44.25421
C         10.78874      108.34938       42.97886
C         10.79741      106.82812       43.12663
O         10.86496      106.14911       42.10999
C         11.89490      108.90305       42.03170
C         13.38681      108.61756       42.14167
O         14.08315      108.98068       41.20749
O         14.00708      107.96934       43.14499
H         11.46491      109.01978       44.91637
H          9.85810      108.54669       42.40173
H         11.76071      110.00360       41.96015
H         11.63541      108.48446       41.03316
N         10.60908      106.21645       44.33369
C         10.39682      104.78133       44.46968
C         11.61104      103.90798       44.23077
O         11.44492      102.69780       44.29934
H         10.48363      106.78800       45.17983
H          9.58044      104.47346       43.77786
H         10.04953      104.56585       45.50364
N         12.85643      104.40749       43.97018
C         14.00532      103.52458       43.74301
C         14.37842      102.69571       44.97469
O         15.20640      101.80317       44.84752
C         15.22902      104.31836       43.22897
C         15.89439      105.17472       44.28395
N         17.21165      105.03541       44.55903
O         15.24606      106.00705       44.89141
H         12.98181      105.42525       43.89519
H         13.70806      102.83120       42.92454
H         14.90156      104.96112       42.38299
H         15.97688      103.60080       42.82818
H         17.79060      104.34938       44.05435
H         17.65941      105.62850       45.27352
N         13.83264      102.95205       46.19902
C         14.10974      102.19759       47.40460
C         14.80602      103.01893       48.47291
O         14.97465      102.48808       49.55902
H         13.17130      103.72479       46.30148
H         14.74677      101.31012       47.19840
H         13.13985      101.82983       47.80412
N         15.31570      104.27052       48.22936
C         16.12956      104.98428       49.21570
C         15.66789      106.41401       49.42205
O         15.08645      106.99227       48.51872
C         17.60755      105.00573       48.77169
C         18.15146      103.60739       48.59692
C         17.81854      102.84036       47.46461
C         18.98616      103.05065       49.57742
C         18.29911      101.53658       47.32618
C         19.45958      101.74313       49.44134
C         19.11479      100.98043       48.31588
O         19.55814       99.71518       48.17740
H         15.22548      104.68429       47.29230
H         16.09283      104.46609       50.19832
H         18.18231      105.53138       49.56623
H         17.75286      105.57920       47.82977
H         17.18645      103.24774       46.68688
H         19.25281      103.62071       50.45844
H         18.03108      100.95694       46.45138
H         20.08871      101.32285       50.21500
H         20.11310       99.28986       48.84646
N         15.96211      107.06332       50.59375
C         15.67123      108.47713       50.81985
C         16.96162      109.18383       51.20662
O         17.49656      108.91405       52.27238
C         14.58417      108.66835       51.91904
C         13.30128      107.88965       51.53684
C         14.28306      110.17156       52.11188
C         12.18446      107.97648       52.57919
H         16.42310      106.53741       51.35051
H         15.27741      108.93013       49.88758
H         14.96695      108.25825       52.88035
H         13.55179      106.81335       51.42385
H         12.92058      108.25927       50.56429
H         13.88333      110.61593       51.17516
H         13.55805      110.34003       52.93171
H         15.19678      110.72378       52.40279
H         12.54671      107.60921       53.56279
H         11.80592      109.01287       52.68598
H         11.33032      107.34599       52.25510
N         17.52381      110.09955       50.36984
C         18.73811      110.84007       50.70524
C         18.45226      111.92439       51.73574
O         17.30695      112.11092       52.12052
C         19.31305      111.48727       49.42771
O         18.39359      112.39362       48.88019
H         17.08660      110.24922       49.44952
H         19.50631      110.13302       51.08971
H         19.52954      110.67739       48.69467
H         20.26358      112.01737       49.65423
H         18.74617      112.64218       47.98685
N         19.45872      112.72701       52.18260
C         19.22109      113.93055       52.97242
C         18.42598      114.92295       52.14275
O         17.43947      115.45675       52.62697
C         20.54928      114.57411       53.38505
H         20.42509      112.51407       51.89122
H         18.67830      113.67989       53.91197
H         21.13217      113.86519       54.01039
H         21.15524      114.85424       52.49762
H         20.35444      115.48796       53.98818
N         18.80373      115.19694       50.85893
C         18.09940      116.13333       49.98621
C         16.66054      115.72797       49.65722
O         15.98292      116.52577       49.02366
C         18.87752      116.28816       48.66974
H         19.64826      114.72813       50.49494
H         18.07890      117.12120       50.49638
H         19.91657      116.62256       48.87638
H         18.92064      115.31557       48.13141
H         18.39688      117.03979       48.00845
N         16.12739      114.52230       50.02002
C         14.76482      114.10474       49.69167
C         13.92647      113.84578       50.94700
O         12.73809      113.59588       50.80658
C         14.86569      112.85247       48.79202
C         13.53506      112.36712       48.19579
C         13.77805      111.18848       47.29932
O         13.49829      111.24493       46.11335
O         14.31010      110.06030       47.80265
H         16.71658      113.84421       50.51211
H         14.25194      114.90804       49.11907
H         15.33914      112.02957       49.37187
H         15.53549      113.10593       47.93979
H         13.06891      113.19340       47.61471
H         12.83044      112.04332       48.98676
N         14.45637      113.90258       52.20433
C         13.68946      113.66373       53.41076
H         12.62393      113.43391       53.20255
H         14.13105      112.80617       53.96054
H         13.73519      114.56411       54.05854
H         15.44881      114.11331       52.34068
Ca        13.53782      108.04907       45.30267
O         17.09007      108.72821       47.21277
H         17.57225      109.58495       47.09567
H         17.77254      108.03244       47.04105
O         16.38847      109.71272       44.47448
H         17.08408      109.72351       43.77002
H         15.63086      110.21773       44.08587

Ca 1.0



