%chk=holoCaM.loop4.water3.frame258.chk
%nprocshared=20
%mem=10GB
%nosave
#b3lyp/svp scf=(tight,noincore,xqc) Test 
#IOP(5/87=12) Density=Current Pop=(MK,readradii) iop(6/33=2) iop(6/42=6)

holoCaM.loop4.water3.frame258 

   -3  1 
C         37.06236       -6.81730       84.51592
C         36.03330       -6.06186       83.72744
O         36.31344       -5.72434       82.58612
H         37.98206       -6.20712       84.62668
H         36.68327       -7.09104       85.52223
H         37.31666       -7.75486       83.97438
N         34.80551       -5.78671       84.25854
C         33.72168       -5.17968       83.49708
C         33.22794       -3.87825       84.11980
O         32.90351       -3.84918       85.30016
C         32.56929       -6.18296       83.36756
C         31.48742       -5.62763       82.48936
O         30.24254       -5.45513       82.96891
O         31.74432       -5.30740       81.34143
H         34.60580       -6.07951       85.22747
H         34.05844       -4.98301       82.46402
H         32.15957       -6.42890       84.36983
H         32.94855       -7.11783       82.89901
N         33.08213       -2.77430       83.33271
C         32.57414       -1.47657       83.74087
C         31.30028       -1.10418       82.96421
O         30.75375       -0.04736       83.22596
C         33.67923       -0.38677       83.49845
C         33.93981       -0.12413       81.97905
C         34.97476       -0.78738       84.22934
C         34.98445        0.95667       81.69092
H         33.32600       -2.85864       82.35221
H         32.32482       -1.49965       84.82492
H         33.31755        0.56689       83.94210
H         32.99552        0.21524       81.50255
H         34.26606       -1.04587       81.46350
H         35.73229        0.01976       84.17618
H         34.76639       -0.97456       85.30290
H         35.41207       -1.70670       83.78216
H         34.70035        1.91347       82.17638
H         35.99121        0.64454       82.03539
H         35.04991        1.12073       80.59342
N         30.83535       -1.88736       81.93391
C         29.77500       -1.48509       81.01894
C         28.67316       -2.54065       80.91635
O         27.53396       -2.20802       81.22280
C         30.38717       -1.07109       79.65277
C         31.34039       -2.00035       78.91314
O         31.77456       -3.18070       79.41081
O         31.75912       -1.63539       77.82850
H         31.30224       -2.76602       81.71479
H         29.28191       -0.55698       81.38816
H         30.96267       -0.13404       79.82849
H         29.54414       -0.81061       78.97569
N         28.91875       -3.82161       80.51761
C         27.90913       -4.86895       80.45591
C         27.80555       -5.54759       79.09945
O         27.03958       -6.49500       79.00216
H         29.87499       -4.10280       80.29532
H         26.90341       -4.48652       80.73382
H         28.18869       -5.64768       81.19648
N         28.51663       -5.13563       78.00545
C         28.38687       -5.77235       76.68969
C         29.06237       -7.15099       76.58511
O         29.06264       -7.70974       75.49661
C         28.83907       -4.80507       75.56391
C         30.28702       -4.42306       75.55744
O         31.12623       -4.90598       76.47741
O         30.70852       -3.65814       74.70550
H         29.10610       -4.29550       78.08592
H         27.30407       -5.91628       76.47946
H         28.24372       -3.87063       75.65313
H         28.60562       -5.26547       74.57988
N         29.60565       -7.78977       77.66463
C         30.17574       -9.13027       77.60350
C         31.58713       -9.19317       77.04865
O         32.12935      -10.28933       77.02375
H         29.53505       -7.36438       78.59559
H         29.49381       -9.80941       77.04464
H         30.24544       -9.52579       78.64044
N         32.25900       -8.08642       76.60951
C         33.63115       -8.12283       76.11592
C         34.53139       -7.11868       76.90091
O         34.24578       -5.78752       76.55786
C         33.63116       -7.85345       74.59160
C         32.92751       -8.98883       73.82757
C         32.94824       -8.75475       72.34038
N         32.29713       -7.70071       71.79678
O         33.54803       -9.53477       71.61544
H         31.78163       -7.18174       76.60276
H         34.07113       -9.13212       76.28058
H         34.66890       -7.79900       74.20588
H         33.13808       -6.87830       74.38770
H         31.87166       -9.09356       74.15498
H         33.45840       -9.94151       74.05159
H         31.77152       -7.04252       72.38989
H         32.30785       -7.54987       70.77716
N         35.95756       -7.44050       76.68588
C         36.96586       -6.49188       77.19619
C         37.38201       -5.51220       76.09032
O         37.74955       -5.97559       75.01860
C         38.21884       -7.29093       77.66768
C         39.21166       -6.37189       78.39975
C         37.85186       -8.45873       78.60056
H         36.19869       -7.80066       75.73622
H         36.56577       -5.96648       78.08551
H         38.72246       -7.73251       76.77907
H         38.74531       -5.96821       79.32346
H         40.12139       -6.93700       78.69288
H         39.52854       -5.52651       77.75680
H         37.19293       -9.18616       78.08138
H         38.77109       -9.00724       78.90077
H         37.33941       -8.09725       79.51568
N         37.41345       -4.15996       76.29111
C         37.87406       -3.20077       75.29029
C         39.17099       -2.54445       75.75097
O         39.79088       -3.03430       76.68595
C         36.76733       -2.17668       74.89732
C         36.61285       -0.95226       75.78302
N         36.17596       -1.03362       77.05410
O         36.87600        0.14816       75.31894
H         37.17043       -3.79095       77.20777
H         38.10231       -3.73468       74.34266
H         35.80150       -2.69979       74.75235
H         37.04199       -1.78728       73.89264
H         35.91442       -1.93430       77.45402
H         36.07860       -0.18329       77.63012
N         39.64456       -1.43155       75.13050
C         40.89271       -0.76055       75.47260
C         40.95546       -0.32202       76.94023
O         41.89339       -0.71744       77.61209
C         41.06681        0.45764       74.54622
C         42.41198        1.11060       74.68950
C         43.56754        0.46229       74.22236
C         42.51909        2.38251       75.26880
C         44.81305        1.08766       74.32377
C         43.76573        2.99990       75.38169
C         44.91710        2.35704       74.90332
O         46.12379        2.95027       74.99220
H         39.09521       -1.04589       74.34894
H         41.72372       -1.47608       75.27769
H         40.25181        1.18041       74.76774
H         40.95087        0.15660       73.48126
H         43.50100       -0.51671       73.76237
H         41.63842        2.89250       75.63843
H         45.69633        0.58742       73.94653
H         43.83294        3.97964       75.83597
H         46.23436        3.83035       75.37926
N         40.02991        0.52111       77.49454
C         40.10340        0.99282       78.88837
C         39.83796       -0.09184       79.94041
O         39.90644        0.23366       81.11939
C         39.14176        2.18493       79.12022
C         39.61116        3.44271       78.36573
C         38.75392        4.64925       78.64419
O         37.67522        4.57171       79.44900
O         39.04896        5.72225       78.14281
H         39.27607        0.87884       76.88994
H         41.13025        1.37561       79.08295
H         39.14805        2.45133       80.20114
H         38.10250        1.90548       78.83780
H         39.62317        3.25482       77.27242
H         40.64601        3.68613       78.69565
N         39.58216       -1.39100       79.62050
C         39.39404       -2.45246       80.60847
C         40.57794       -3.41526       80.62726
O         40.52772       -4.37958       81.37770
C         38.12277       -3.24704       80.27190
C         36.84926       -2.40711       80.30391
C         35.68280       -3.26893       79.91721
O         34.69069       -3.47636       80.76814
O         35.62791       -3.81574       78.83786
H         39.55572       -1.66530       78.63450
H         39.30181       -2.03823       81.63718
H         37.99994       -4.08101       80.99848
H         38.24774       -3.67852       79.25738
H         36.92559       -1.55231       79.60288
H         36.69781       -2.00375       81.32921
N         41.68080       -3.21689       79.84918
C         42.81869       -4.11022       79.81727
H         43.72609       -3.55697       80.13839
H         42.68625       -4.99252       80.47603
H         42.96761       -4.46668       78.77621
H         41.74163       -2.39367       79.24727
Ca        33.04200       -4.70316       78.23421
O         31.96974       -7.34289       79.55099
H         31.27825       -7.59766       80.21166
H         32.54484       -8.14380       79.47860
O         34.70503       -6.69384       80.21413
H         34.65466       -7.54611       80.71505
H         35.66791       -6.47114       80.20250
O         33.68405       -2.86745       76.13837
H         33.40777       -1.96054       75.85614
H         33.44167       -3.45081       75.37690

Ca 1.0



