%chk=holoCaM-CaMKII.loop2.water2.frame115.chk
%nprocshared=20
%mem=10GB
%nosave
#b3lyp/svp scf=(tight,noincore,xqc) Test 
#IOP(5/87=12) Density=Current Pop=(MK,readradii) iop(6/33=2) iop(6/42=6)

holoCaM-CaMKII.loop2.water2.frame115 

   -2  1 
C         30.54820       49.49945       58.61925
C         29.86437       49.60147       57.28057
O         30.49434       49.34537       56.26768
H         31.41155       50.19433       58.66265
H         29.85587       49.75434       59.45148
H         30.90490       48.46018       58.78078
N         28.55443       49.95800       57.21425
C         27.76305       50.02901       55.98645
C         28.25570       51.09127       55.00907
O         28.57922       52.19300       55.42945
C         26.30546       50.34129       56.37034
C         25.41362       50.45717       55.17719
O         25.29063       49.51912       54.40917
O         24.75934       51.61045       54.94556
H         28.07560       50.15380       58.10772
H         27.76996       49.03225       55.48917
H         26.26922       51.29830       56.93419
H         25.91883       49.52975       57.02339
N         28.23234       50.83498       53.66419
C         28.60369       51.80090       52.63281
C         27.50588       52.04832       51.58492
O         27.75096       52.86116       50.70301
C         29.84625       51.27024       51.90828
H         27.93829       49.89965       53.35639
H         28.86284       52.77710       53.09659
H         30.66860       51.09968       52.63404
H         29.61437       50.30821       51.40037
H         30.19894       51.99517       51.14374
N         26.31984       51.36191       51.55406
C         25.44029       51.38713       50.37651
C         23.94073       51.19813       50.66518
O         23.17298       51.26135       49.71366
C         25.93082       50.31518       49.37059
C         26.15293       48.97367       50.02890
O         27.21371       48.39258       49.86897
O         25.28951       48.50995       50.95047
H         26.17124       50.62211       52.24800
H         25.50824       52.37821       49.87382
H         26.91203       50.64153       48.95760
H         25.23342       50.23850       48.50951
N         23.43244       50.98521       51.91312
C         22.00355       50.86018       52.19602
C         21.32043       49.61161       51.64333
O         20.11926       49.49105       51.83754
H         24.06606       50.97056       52.71356
H         21.48411       51.76311       51.80662
H         21.86151       50.84131       53.29852
N         21.99186       48.64773       50.95053
C         21.35666       47.47020       50.35244
C         20.80389       46.44370       51.35286
O         20.25603       45.44780       50.89939
C         22.32839       46.79562       49.34895
C         23.59337       46.21455       49.93093
N         24.49443       45.62984       49.11043
O         23.81903       46.27162       51.12863
H         22.98657       48.79047       50.77303
H         20.50309       47.82738       49.73511
H         22.62392       47.55554       48.59232
H         21.79165       45.98146       48.81695
H         24.32587       45.57605       48.09582
H         25.36363       45.23129       49.48653
N         20.87023       46.60911       52.70673
C         20.28776       45.66670       53.65692
C         21.06129       44.36864       53.83717
O         20.64006       43.56562       54.65549
H         21.28089       47.46630       53.09399
H         19.23205       45.45984       53.37678
H         20.27802       46.14863       54.65898
N         22.21851       44.11446       53.16527
C         23.07579       42.95638       53.41200
C         24.42903       43.42369       53.92195
O         24.68203       44.61566       54.00730
C         23.25103       42.11439       52.11368
C         22.01246       41.27183       51.81881
O         23.52930       42.93485       51.00740
H         22.55251       44.79704       52.48165
H         22.66171       42.30475       54.21217
H         24.06691       41.36580       52.22856
H         24.45527       43.27223       51.11966
H         22.18287       40.66845       50.90043
H         21.83731       40.56372       52.65901
H         21.11444       41.90597       51.67979
N         25.36037       42.49069       54.26548
C         26.71808       42.80040       54.68273
C         27.61954       42.32475       53.56416
O         27.55875       41.15762       53.20446
C         27.05069       42.08548       56.02606
C         26.09627       42.55448       57.15440
C         28.52389       42.33502       56.42065
C         26.19374       41.69192       58.41718
H         25.11448       41.49378       54.17874
H         26.85828       43.89508       54.82357
H         26.90278       40.99301       55.87313
H         25.04323       42.47708       56.81067
H         26.29752       43.61952       57.40479
H         28.79985       41.79102       57.34456
H         29.21157       41.96912       55.63209
H         28.70922       43.42032       56.57390
H         25.47268       42.06137       59.17607
H         25.93509       40.63849       58.17415
H         27.20382       41.72167       58.87024
N         28.49272       43.18548       52.97348
C         29.38115       42.78691       51.88861
C         30.73398       42.43980       52.46508
O         30.91553       42.58295       53.66017
C         29.48216       43.91409       50.84287
C         28.13583       44.29778       50.29472
O         27.89944       44.17961       49.10342
O         27.19277       44.80355       51.11295
H         28.58303       44.13734       53.35183
H         28.99335       41.86842       51.39587
H         30.13823       43.58296       50.00917
H         29.93617       44.81779       51.30518
N         31.72239       41.91106       51.69040
C         32.99732       41.50239       52.26860
C         33.76921       42.69138       52.83367
O         34.15890       42.60134       53.99139
C         33.85492       40.68959       51.27516
C         35.07753       40.12770       51.96538
C         36.36523       40.54301       51.58803
C         34.93712       39.18711       53.00375
C         37.49006       40.03096       52.24287
C         36.06355       38.67673       53.65264
C         37.33936       39.09907       53.27370
H         31.54146       41.74428       50.69003
H         32.76518       40.80084       53.10052
H         34.15486       41.30835       50.41349
H         33.26162       39.84062       50.87250
H         36.49879       41.26920       50.79609
H         33.95680       38.84572       53.31193
H         38.47946       40.35849       51.95255
H         35.94574       37.95432       54.45024
H         38.21056       38.70388       53.77934
N         34.02527       43.84103       52.12585
C         34.72353       45.00091       52.67625
C         34.16949       45.42457       54.02333
O         34.92175       45.71322       54.94115
C         34.43664       46.11190       51.64925
C         34.35925       45.33640       50.35990
C         33.54276       44.12364       50.78354
H         35.81392       44.78600       52.72938
H         33.41589       46.53351       51.80557
H         35.16123       46.95359       51.66338
H         33.93974       45.89166       49.49345
H         35.38915       44.99596       50.10837
H         32.45843       44.36284       50.84188
H         33.71747       43.32746       50.04349
N         32.82117       45.46553       54.17921
C         32.11781       45.90870       55.37551
C         32.48096       45.01330       56.54611
O         32.94935       45.51890       57.55696
C         30.59109       45.96716       55.07339
C         30.35956       46.96172       53.90457
C         28.97553       47.13656       53.37509
O         28.83970       47.86521       52.40642
O         27.88247       46.54040       53.88025
H         32.26372       45.14233       53.37787
H         32.42835       46.94977       55.62050
H         30.03481       46.31211       55.97214
H         30.22415       44.95654       54.79927
H         30.93287       46.65976       53.01136
H         30.73357       47.96123       54.20265
N         32.36349       43.66238       56.45150
C         32.79524       42.76168       57.49662
H         33.87783       42.91184       57.69998
H         32.20991       42.93758       58.42174
H         32.64837       41.70926       57.16939
H         31.99929       43.25108       55.58908
Ca        26.12222       47.31772       52.69105
O         23.33448       47.57751       54.55642
H         22.91707       48.45859       54.73244
H         23.18126       47.06126       55.38606
O         25.80100       46.41671       56.10319
H         26.74211       46.18680       56.30563
H         25.50843       46.96860       56.87082

Ca 1.0



