%chk=holoCaM-CaMKII.loop4.water1.frame439.chk
%nprocshared=20
%mem=10GB
%nosave
#b3lyp/svp scf=(tight,noincore,xqc) Test 
#IOP(5/87=12) Density=Current Pop=(MK,readradii) iop(6/33=2) iop(6/42=6)

holoCaM-CaMKII.loop4.water1.frame439 

   -3  1 
C         63.79039       80.98531       25.09158
C         63.04688       81.96658       25.95271
O         61.92102       82.31215       25.62950
H         64.80544       80.77890       25.49550
H         63.23278       80.02671       25.04982
H         63.90148       81.39510       24.06686
N         63.61847       82.43889       27.09082
C         62.97130       83.37619       28.00037
C         62.80151       84.74871       27.34638
O         63.76709       85.30084       26.83874
C         63.79389       83.43234       29.30015
C         63.21353       84.34390       30.32953
O         63.99113       85.29491       30.86724
O         62.06318       84.20856       30.71097
H         64.55481       82.08224       27.34076
H         61.97588       82.96861       28.29092
H         64.83889       83.74484       29.08859
H         63.81622       82.40768       29.73433
N         61.58000       85.35894       27.36247
C         61.25709       86.64456       26.73787
C         60.99813       87.72209       27.80114
O         60.81024       88.86846       27.42126
C         59.98446       86.46266       25.82274
C         60.10821       85.28895       24.81684
C         59.53338       87.73962       25.07834
C         61.16959       85.47739       23.73347
H         60.83233       84.88090       27.86982
H         62.11907       86.99094       26.12740
H         59.14064       86.18981       26.49010
H         59.12588       85.14729       24.31282
H         60.31660       84.34995       25.36806
H         58.63984       87.52003       24.45481
H         59.20825       88.53655       25.77258
H         60.33851       88.13707       24.42775
H         60.94278       86.36348       23.10540
H         62.17735       85.58498       24.18131
H         61.16945       84.58739       23.06938
N         60.98079       87.45353       29.14299
C         60.62394       88.45868       30.14837
C         61.77751       88.78131       31.08847
O         61.59856       89.61052       31.97024
C         59.45478       87.92530       30.99924
C         58.28919       87.43419       30.17960
O         57.67018       88.20538       29.46500
O         57.91703       86.13640       30.24889
H         61.18394       86.50222       29.48009
H         60.31193       89.40730       29.66090
H         59.10476       88.70887       31.70508
H         59.84185       87.08851       31.61089
N         62.97262       88.13899       30.99775
C         64.05378       88.31395       31.95015
C         63.63255       87.93874       33.35797
O         63.92129       88.68708       34.28015
H         63.12813       87.46067       30.24177
H         64.44791       89.35220       31.91651
H         64.88240       87.63334       31.65557
N         62.95020       86.78071       33.59036
C         62.61575       86.26958       34.91889
C         63.22407       84.88831       35.14513
O         62.96563       84.29515       36.18331
C         61.09097       86.30106       35.17102
C         60.20417       85.53646       34.22837
O         58.99453       85.62054       34.36920
O         60.68675       84.84979       33.17961
H         62.66869       86.21744       32.77732
H         63.04435       86.92807       35.70654
H         60.77311       87.36583       35.11237
H         60.88778       85.95044       36.20623
N         64.11091       84.34926       34.25667
C         64.81718       83.10236       34.48113
C         63.99946       81.85364       34.25268
O         64.58770       80.78708       34.38118
H         64.40007       84.88456       33.42849
H         65.26348       83.10383       35.49945
H         65.65468       83.04864       33.75207
N         62.67974       81.86752       33.89688
C         61.93826       80.64142       33.61078
C         61.34758       80.65253       32.21907
O         61.33064       81.68791       31.56486
C         60.90082       80.35733       34.72629
C         59.84607       81.44347       35.03355
C         58.69083       81.52953       34.06269
N         57.42811       81.28446       34.48975
O         58.87729       81.85263       32.90138
H         62.18282       82.76578       33.81684
H         62.63565       79.77472       33.62210
H         61.50401       80.24951       35.65462
H         60.39241       79.38253       34.55851
H         60.32504       82.43707       35.14660
H         59.42005       81.18332       36.02649
H         57.23509       81.02205       35.46720
H         56.62996       81.36959       33.84794
N         60.86966       79.49670       31.68957
C         60.21745       79.39131       30.39223
C         58.85910       78.76359       30.64378
O         58.81809       77.67138       31.19894
C         61.08314       78.54484       29.41273
C         60.42207       78.43389       28.02706
C         62.48064       79.16698       29.23467
H         60.97327       78.62976       32.24325
H         60.09201       80.39488       29.92939
H         61.20912       77.51992       29.82636
H         61.04194       77.80440       27.35278
H         59.41803       77.96761       28.09650
H         60.32489       79.43720       27.56247
H         62.40413       80.19559       28.81913
H         63.02020       79.21401       30.20313
H         63.09202       78.55201       28.53923
N         57.70542       79.38314       30.26759
C         56.38413       78.81235       30.51880
C         55.83733       78.20635       29.24954
O         56.57666       78.10951       28.27988
C         55.41700       79.81901       31.19977
C         54.79326       80.88761       30.32706
N         55.51491       81.90024       29.80792
O         53.58773       80.85807       30.12861
H         57.77450       80.25323       29.72743
H         56.47179       77.97113       31.24069
H         55.91433       80.28411       32.06857
H         54.57441       79.22301       31.61060
H         56.51533       81.98716       30.00351
H         55.05542       82.62676       29.23797
N         54.56982       77.71703       29.18775
C         54.04211       77.09962       27.98267
C         53.98802       78.09836       26.82676
O         54.34210       77.73185       25.71737
C         52.64265       76.50296       28.22366
C         52.34518       75.50151       27.13548
C         53.01699       74.26425       27.14058
C         51.43947       75.78727       26.10548
C         52.78874       73.32943       26.13113
C         51.22328       74.85375       25.08478
C         51.89806       73.62181       25.09555
O         51.70372       72.71573       24.11681
H         53.97178       77.76067       30.02606
H         54.72640       76.25825       27.72768
H         51.89632       77.32634       28.27052
H         52.59659       75.95547       29.19141
H         53.71793       74.02311       27.93170
H         50.92368       76.73848       26.07912
H         53.31180       72.38090       26.15141
H         50.53679       75.09095       24.28302
H         51.10907       72.88207       23.37223
N         53.54101       79.37828       27.01625
C         53.50143       80.38132       25.94528
C         54.88921       80.77870       25.42560
O         54.94124       81.47827       24.42316
C         52.76519       81.66334       26.39996
C         51.28757       81.40972       26.73252
C         50.60144       82.69369       27.10367
O         51.01363       83.39649       28.17620
O         49.66480       83.10483       26.43717
H         53.20728       79.63782       27.95409
H         52.93457       79.94522       25.09287
H         52.79218       82.40608       25.57097
H         53.28890       82.10389       27.27784
H         51.18786       80.69851       27.57806
H         50.78743       80.96974       25.84133
N         56.04508       80.37515       26.02904
C         57.38568       80.66874       25.51825
C         58.08216       79.39839       25.03773
O         59.17302       79.50189       24.49428
C         58.23823       81.35278       26.60804
C         57.57887       82.63232       27.12514
C         58.37154       83.27356       28.22451
O         58.60192       84.46518       28.17551
O         58.77711       82.56834       29.29663
H         55.98022       79.82805       26.88742
H         57.32077       81.34607       24.63940
H         59.24986       81.58898       26.21047
H         58.35041       80.64654       27.45821
H         56.58743       82.37270       27.52980
H         57.43485       83.35850       26.29535
N         57.51371       78.16751       25.18076
C         58.11244       76.95416       24.67799
H         59.10449       76.79290       25.14577
H         57.45637       76.08863       24.92119
H         58.21100       77.01607       23.57405
H         56.61921       78.06528       25.65831
Ca        59.19184       84.74403       31.50257
O         56.46834       83.78716       32.02745
H         56.20025       84.73398       32.13345
H         55.73935       83.27079       32.45284

Ca 1.0



