%chk=holoCaM-CaMKII.loop4.water1.frame435.chk
%nprocshared=20
%mem=10GB
%nosave
#b3lyp/svp scf=(tight,noincore,xqc) Test 
#IOP(5/87=12) Density=Current Pop=(MK,readradii) iop(6/33=2) iop(6/42=6)

holoCaM-CaMKII.loop4.water1.frame435 

   -3  1 
C         55.56889       76.56980       30.32170
C         54.13760       76.25997       30.63416
O         53.58346       75.37064       30.00262
H         56.18140       75.65760       30.49136
H         55.65994       76.87485       29.25947
H         55.96013       77.38061       30.97005
N         53.47896       76.91666       31.63244
C         52.13355       76.53324       32.02465
C         51.11558       76.89762       30.95790
O         50.92056       78.07508       30.68986
C         51.75078       77.13995       33.38629
C         50.50755       76.46942       33.87654
O         49.56551       77.11722       34.29414
O         50.44594       75.12523       33.84605
H         53.98275       77.62952       32.18250
H         52.16753       75.42910       32.17120
H         51.63233       78.24719       33.34019
H         52.55790       76.90534       34.11069
N         50.44972       75.91710       30.28862
C         49.52101       76.18764       29.19801
C         48.16784       76.66307       29.73830
O         47.81444       77.80752       29.49156
C         49.40592       74.94808       28.25107
C         50.79220       74.44733       27.73703
C         48.46902       75.23485       27.06514
C         51.62887       75.48779       26.98305
H         50.70549       74.94664       30.50058
H         49.95063       77.00595       28.57954
H         48.96158       74.09991       28.81494
H         50.63384       73.57160       27.07056
H         51.40514       74.08265       28.58705
H         48.83702       76.08598       26.45659
H         48.38976       74.33610       26.41622
H         47.44778       75.47767       27.42465
H         51.88941       76.34296       27.64011
H         52.58215       75.02236       26.65432
H         51.09863       75.85828       26.08328
N         47.33887       75.83189       30.44426
C         45.99720       76.23057       30.90643
C         46.01184       77.28484       32.02864
O         44.93823       77.73938       32.39799
C         45.15825       74.97830       31.30194
C         45.73951       74.22931       32.46324
O         45.33150       73.12137       32.77023
O         46.73301       74.80627       33.14601
H         47.64163       74.85699       30.58313
H         45.46590       76.67389       30.03487
H         45.14480       74.29993       30.42021
H         44.10703       75.25316       31.53547
N         47.16976       77.75706       32.58429
C         47.20543       78.90333       33.48854
C         46.81719       78.66778       34.94363
O         46.77806       79.65165       35.66906
H         48.07332       77.39951       32.24702
H         46.57441       79.70840       33.05604
H         48.24511       79.29662       33.51507
N         46.56415       77.43529       35.47311
C         46.22644       77.22850       36.89237
C         47.36850       77.54514       37.88008
O         47.16484       77.36669       39.07436
C         45.73029       75.77979       37.11796
C         46.77945       74.72136       36.91591
O         46.48342       73.54647       37.05994
O         48.04458       75.05110       36.59730
H         46.58286       76.62144       34.84559
H         45.36219       77.88503       37.13722
H         44.88412       75.58225       36.42512
H         45.34421       75.68409       38.15710
N         48.58484       78.00940       37.47439
C         49.69953       78.27578       38.36728
C         50.36131       77.00399       38.85482
O         50.58987       76.86880       40.04359
H         48.75317       78.20949       36.48293
H         49.39849       78.94980       39.20081
H         50.48192       78.80751       37.78318
N         50.75178       76.06360       37.94195
C         51.57170       74.87278       38.23603
C         51.87177       74.08890       36.96394
O         51.25309       74.33432       35.96064
C         50.98119       73.96336       39.34562
C         49.51753       73.50122       39.19320
C         49.27358       72.41256       38.16953
N         48.78931       71.20797       38.55491
O         49.47649       72.61638       36.98528
H         50.49772       76.26243       36.96579
H         52.55378       75.24728       38.59607
H         51.01903       74.54590       40.28619
H         51.63875       73.08336       39.51623
H         48.86560       74.37678       38.99641
H         49.21730       73.09854       40.18444
H         48.58773       71.00618       39.54492
H         48.60479       70.47233       37.85672
N         52.85708       73.14911       36.92377
C         53.22059       72.42989       35.69766
C         53.14489       70.93766       35.97522
O         53.76508       70.49187       36.92761
C         54.64324       72.87182       35.24660
C         55.10568       72.12179       33.98447
C         54.67134       74.38466       34.94910
H         53.40806       72.97795       37.77432
H         52.53637       72.67383       34.85508
H         55.36630       72.65885       36.06360
H         55.14014       71.02726       34.15998
H         54.42608       72.33096       33.13220
H         56.12937       72.44807       33.69995
H         55.69158       74.70136       34.64396
H         53.96566       74.63744       34.12685
H         54.39247       74.97512       35.84617
N         52.43277       70.10023       35.15681
C         52.35438       68.65545       35.38169
C         53.21315       67.91055       34.37086
O         53.85520       68.54425       33.54878
C         50.88920       68.14198       35.43792
C         50.16316       68.03717       34.11412
N         49.75599       69.13076       33.43829
O         49.89818       66.93040       33.66832
H         51.99385       70.49191       34.31635
H         52.78811       68.41689       36.37590
H         50.29128       68.74442       36.15521
H         50.92749       67.11437       35.85790
H         49.91023       70.06921       33.81840
H         49.24064       69.03077       32.55082
N         53.30249       66.54932       34.41054
C         54.19164       65.76814       33.55463
C         53.95838       66.02450       32.07837
O         54.93599       66.18266       31.36030
C         54.05629       64.26267       33.86584
C         55.03468       63.43979       33.05701
C         56.42026       63.64505       33.18986
C         54.57078       62.46921       32.15422
C         57.32227       62.90216       32.42472
C         55.47606       61.72404       31.39235
C         56.85563       61.94117       31.52328
O         57.73957       61.23529       30.79003
H         52.73947       66.04360       35.10889
H         55.23585       66.06731       33.79210
H         53.01017       63.94436       33.65986
H         54.25920       64.08795       34.94488
H         56.80598       64.38417       33.88024
H         53.50927       62.29203       32.03467
H         58.38563       63.07671       32.53173
H         55.10384       60.98142       30.69831
H         57.45885       60.56354       30.15257
N         52.70538       66.08119       31.54925
C         52.46914       66.37817       30.13959
C         53.05181       67.74147       29.78267
O         53.85604       67.82012       28.86452
C         50.95849       66.31889       29.82047
C         50.68495       66.45913       28.31315
C         49.21912       66.33130       28.01321
O         48.56088       65.19806       28.32517
O         48.62098       67.24520       27.46834
H         51.89943       65.92833       32.17434
H         52.96328       65.58962       29.52735
H         50.41234       67.10865       30.38264
H         50.57360       65.32844       30.15026
H         51.22357       65.65836       27.76113
H         51.05294       67.44397       27.95169
N         52.69717       68.85704       30.48589
C         53.20079       70.19956       30.17332
C         54.70829       70.34383       30.39915
O         55.24788       71.38129       30.03994
C         52.48060       71.27257       31.02429
C         50.95624       71.27075       30.82766
C         50.29301       72.27806       31.71715
O         49.49479       73.07281       31.25481
O         50.53817       72.28036       33.03918
H         52.02884       68.73466       31.25987
H         52.98327       70.40392       29.10154
H         52.86834       72.28283       30.76267
H         52.70822       71.07599       32.09421
H         50.54243       70.28620       31.09936
H         50.69946       71.46820       29.76415
N         55.44646       69.37070       31.00448
C         56.87149       69.45532       31.24665
H         57.31136       70.40320       30.87573
H         57.06112       69.37758       32.33839
H         57.37774       68.60633       30.73965
H         54.98717       68.52284       31.33521
Ca        48.54045       73.99668       34.08610
O         47.37421       71.11746       33.90467
H         46.87747       71.70902       34.52361
H         47.01299       70.21322       34.08289

Ca 1.0



