%chk=holoCaM.loop1.water2.frame136.chk
%nprocshared=20
%mem=10GB
%nosave
#b3lyp/svp scf=(tight,noincore,xqc) Test 
#IOP(5/87=12) Density=Current Pop=(MK,readradii) iop(6/33=2) iop(6/42=6)

holoCaM.loop1.water2.frame136 

   0  1 
C         -5.78544       93.27178        0.26474
C         -5.77090       91.82962       -0.14086
O         -6.62887       91.40848       -0.90170
H         -6.77383       93.51891        0.70486
H         -5.00925       93.47875        1.03416
H         -5.59228       93.91090       -0.61874
N         -4.79640       91.01261        0.32868
C         -4.74885       89.58502        0.07981
C         -5.84683       88.87366        0.89544
O         -5.96646       89.09359        2.09090
C         -3.33234       89.08186        0.40202
C         -3.30323       87.61186        0.29221
O         -3.60029       87.09256       -0.91732
O         -3.10954       86.93099        1.28239
H         -4.04709       91.43021        0.90119
H         -4.89365       89.38209       -1.01020
H         -3.01696       89.40865        1.41128
H         -2.61059       89.48614       -0.34799
N         -6.66219       87.98312        0.26435
C         -7.86098       87.32290        0.77753
C         -7.69008       85.83540        1.06256
O         -8.66651       85.22548        1.48478
C         -8.98973       87.52722       -0.27376
C         -9.25410       88.97768       -0.75117
C         -9.94303       89.91050        0.26042
C         -9.07112       90.40663        1.42810
N         -9.85854       91.20356        2.36073
H         -6.44728       87.80743       -0.70284
H         -8.13327       87.70339        1.76637
H         -9.94502       87.07458        0.07032
H         -8.68179       86.96621       -1.18747
H         -9.96250       88.88301       -1.60622
H         -8.33676       89.44739       -1.16374
H        -10.84984       89.39548        0.64169
H        -10.26826       90.81719       -0.29589
H         -8.21966       91.00352        1.04373
H         -8.65643       89.59233        2.01464
H        -10.23152       92.05667        1.88863
H        -10.64510       90.62097        2.73188
H         -9.24847       91.48374        3.16300
N         -6.50494       85.17895        0.92807
C         -6.32493       83.78389        1.34780
C         -4.96117       83.51199        2.00997
O         -4.65733       82.36566        2.27405
C         -6.75351       82.76509        0.24552
C         -6.07758       82.95196       -1.07004
O         -5.29358       84.01531       -1.20114
O         -6.29281       82.20324       -2.00986
H         -5.69215       85.70601        0.56940
H         -7.02243       83.56109        2.18335
H         -7.84462       82.87495        0.06534
H         -6.55655       81.73647        0.60755
N         -4.17646       84.54402        2.45797
C         -3.04028       84.37381        3.36335
C         -1.67140       84.25176        2.71177
O         -0.68670       84.29672        3.43774
H         -4.54697       85.49250        2.37988
H         -3.21590       83.52296        4.05359
H         -3.00322       85.28934        3.99233
N         -1.51390       84.06030        1.37731
C         -0.20412       83.88961        0.72768
C          0.58433       85.19376        0.53320
O          1.74098       85.12698        0.14587
C         -0.38420       83.18469       -0.63707
C         -1.49146       83.78888       -1.44238
O         -1.50815       84.98705       -1.65316
O         -2.52932       83.02116       -1.82988
H         -2.37644       83.94872        0.82804
H          0.42850       83.21966        1.35102
H         -0.65816       82.12441       -0.45869
H          0.56129       83.20568       -1.22051
N          0.00962       86.40903        0.72638
C          0.65524       87.68394        0.46307
C          1.05603       87.80273       -0.99199
O          2.20845       88.08275       -1.28206
H         -0.95358       86.43707        1.03526
H          1.51857       87.83483        1.14454
H         -0.08229       88.49433        0.67196
N          0.10654       87.64746       -1.95314
C          0.30910       87.85550       -3.39126
C         -1.03883       88.11309       -4.04122
O         -2.04027       87.54903       -3.62392
C          1.02861       86.70334       -4.15695
C          2.49652       86.46520       -3.80811
O          0.32450       85.50084       -4.05413
H         -0.84926       87.48075       -1.60646
H          0.89482       88.79141       -3.52155
H          1.03081       86.99283       -5.23196
H          0.27543       85.28368       -3.09336
H          3.08763       87.39182       -3.96271
H          2.60940       86.10097       -2.76865
H          2.89877       85.68255       -4.48990
N         -1.12632       88.98062       -5.08402
C         -2.39529       89.41684       -5.63683
C         -2.64998       88.69802       -6.96316
O         -1.83750       88.77298       -7.86961
C         -2.39326       90.97027       -5.76571
C         -2.08854       91.73048       -4.43731
C         -3.71338       91.49790       -6.34940
C         -2.96409       91.35117       -3.23100
H         -0.26208       89.37955       -5.47884
H         -3.22479       89.15701       -4.94446
H         -1.60091       91.25350       -6.49268
H         -2.22222       92.81410       -4.64873
H         -1.02821       91.60328       -4.12806
H         -3.64628       92.59114       -6.53023
H         -3.92562       91.02716       -7.32335
H         -4.55890       91.32433       -5.66417
H         -4.02902       91.20601       -3.49463
H         -2.58404       90.41989       -2.76124
H         -2.91262       92.16005       -2.46975
N         -3.81675       88.00658       -7.12448
C         -4.28744       87.38158       -8.35240
C         -5.14821       88.39776       -9.08400
O         -5.28836       89.50177       -8.60770
C         -5.13373       86.10904       -8.02641
C         -4.35817       85.07451       -7.19458
O         -6.35159       86.45512       -7.40718
H         -4.50407       88.08030       -6.38932
H         -3.42428       87.09364       -8.98952
H         -5.40482       85.59933       -8.97393
H         -6.23328       86.42751       -6.42713
H         -4.07841       85.50450       -6.21087
H         -4.99032       84.17790       -7.01255
H         -3.44027       84.75716       -7.72705
N         -5.75271       88.09622      -10.26045
C         -6.61026       89.04566      -10.97886
C         -7.88589       89.39011      -10.21383
O         -8.23423       90.56317      -10.18257
C         -6.88829       88.52837      -12.40495
C         -5.58529       88.62866      -13.22346
O         -7.35652       87.20541      -12.35655
H         -5.57456       87.16700      -10.66339
H         -6.06688       90.00850      -11.11520
H         -7.64980       89.17381      -12.90016
H         -7.61798       86.96165      -13.28260
H         -5.34249       89.70269      -13.38943
H         -4.72539       88.16845      -12.69087
H         -5.69393       88.14507      -14.21384
N         -8.61763       88.45502       -9.54517
C         -9.79668       88.80229       -8.74347
C         -9.39662       89.76917       -7.63506
O        -10.02273       90.80899       -7.48763
C        -10.46763       87.53995       -8.14203
C        -11.29713       86.72407       -9.16413
C        -10.50055       86.13841      -10.33786
C        -11.40164       85.34330      -11.29176
N        -10.63568       84.85094      -12.43852
H         -8.29266       87.47622       -9.56292
H        -10.56878       89.30199       -9.37079
H        -11.20744       87.87119       -7.37733
H         -9.71809       86.90505       -7.62004
H        -12.09487       87.38265       -9.57348
H        -11.79097       85.89095       -8.61649
H         -9.70602       85.46770       -9.94283
H        -10.04708       86.95825      -10.92789
H        -12.22795       85.99118      -11.66355
H        -11.84948       84.48590      -10.74327
H        -10.34848       85.65395      -13.04508
H         -9.78364       84.33540      -12.11903
H        -11.23356       84.20290      -13.00013
N         -8.32797       89.49350       -6.84254
C         -7.85733       90.35980       -5.75941
C         -7.44128       91.74029       -6.27731
O         -7.60911       92.71333       -5.55884
C         -6.68171       89.67697       -5.01980
C         -7.11559       88.32535       -4.40939
C         -6.00705       87.52175       -3.79583
O         -4.99198       87.24990       -4.40231
O         -6.22831       86.90163       -2.64114
H         -7.81446       88.62583       -7.04890
H         -8.67037       90.49387       -5.01244
H         -6.28526       90.32766       -4.21068
H         -5.88550       89.52372       -5.76475
H         -7.57162       87.67373       -5.17149
H         -7.89636       88.50160       -3.64078
N         -6.91635       91.89338       -7.52776
C         -6.48507       93.15319       -8.10226
H         -5.41928       93.07515       -8.41053
H         -7.08807       93.36184       -9.01131
H         -6.58544       94.00362       -7.39825
H         -6.82997       91.07441       -8.12616
Ca        -3.99461       85.36305       -2.29687
O         -6.04998       84.33608       -4.51828
H         -6.47108       83.91340       -3.73347
H         -6.80037       84.45114       -5.15171
O         -2.40052       84.10813       -4.91931
H         -2.23219       83.36708       -5.55237
H         -1.66053       84.73849       -5.08959

Ca 1.0



