%chk=holoCaM.loop3.water3.frame268.chk
%nprocshared=20
%mem=10GB
%nosave
#b3lyp/svp scf=(tight,noincore,xqc) Test 
#IOP(5/87=12) Density=Current Pop=(MK,readradii) iop(6/33=2) iop(6/42=6)

holoCaM.loop3.water3.frame268 

   0  1 
C         44.32898      -10.03243       65.40498
C         43.58604      -10.23808       64.11927
O         43.66813      -11.31659       63.54763
H         45.04309       -9.19062       65.29180
H         43.60909       -9.79650       66.21690
H         44.89412      -10.94728       65.68549
N         42.81536       -9.23557       63.61011
C         42.04126       -9.38723       62.38385
C         42.99075       -9.57724       61.21003
O         43.79228       -8.69247       60.94238
C         41.11917       -8.16491       62.18331
C         40.01645       -8.46146       61.21180
O         40.27941       -8.83936       59.95637
O         38.86191       -8.41141       61.58615
H         42.75244       -8.35304       64.14136
H         41.39217      -10.28203       62.51799
H         41.70650       -7.27393       61.87607
H         40.62625       -7.93314       63.15411
N         43.01101      -10.75178       60.52402
C         44.03539      -11.07548       59.53358
C         43.92343      -10.21606       58.27341
O         44.94500       -9.75283       57.78763
C         44.00611      -12.59346       59.22431
C         45.38010      -13.14977       58.79886
C         45.32522      -14.68172       58.65990
C         46.72803      -15.30531       58.58803
N         46.64424      -16.76134       58.45976
H         42.34220      -11.48450       60.80553
H         45.01771      -10.89074       60.02566
H         43.19876      -12.84348       58.50401
H         43.78834      -13.12144       60.17964
H         46.10027      -12.90467       59.61237
H         45.74509      -12.68580       57.85737
H         44.72918      -14.94562       57.75983
H         44.82718      -15.11667       59.55463
H         47.27808      -15.05959       59.52554
H         47.29808      -14.88881       57.72956
H         46.19742      -17.01346       57.54871
H         47.60741      -17.16751       58.49003
H         46.08704      -17.16591       59.24788
N         42.70482       -9.93359       57.71693
C         42.50755       -9.13063       56.50563
C         41.84405       -7.77303       56.78276
O         41.52444       -7.07454       55.83055
C         41.74364       -9.95745       55.43788
C         40.30202      -10.27855       55.73709
O         39.65701      -10.94079       54.94053
O         39.69840       -9.82414       56.84415
H         41.87103      -10.29775       58.18463
H         43.49141       -8.89427       56.04633
H         42.29058      -10.91235       55.28258
H         41.75575       -9.39777       54.47777
N         41.69554       -7.29036       58.05181
C         41.21167       -5.94952       58.36283
C         39.73536       -5.67040       58.12071
O         39.35679       -4.52297       58.31455
H         42.06720       -7.83974       58.83547
H         41.81526       -5.21967       57.78048
H         41.39551       -5.74554       59.44033
N         38.83511       -6.61346       57.71079
C         37.43801       -6.26987       57.41846
C         36.64662       -5.79170       58.63806
O         35.55258       -5.27784       58.44973
C         36.69282       -7.43595       56.73008
C         36.36306       -8.57802       57.66581
N         35.07763       -8.96696       57.84568
O         37.25645       -9.15750       58.26318
H         39.16344       -7.56982       57.54315
H         37.47715       -5.43780       56.67932
H         37.30560       -7.81019       55.88173
H         35.74562       -7.04126       56.30088
H         34.30563       -8.49853       57.34851
H         34.84974       -9.74697       58.47924
N         37.11260       -5.96100       59.91021
C         36.41632       -5.49379       61.09915
C         35.98772       -6.61888       62.02336
O         35.55879       -6.30619       63.12559
H         38.01001       -6.43907       60.06209
H         35.50984       -4.89870       60.85041
H         37.11165       -4.82179       61.64593
N         35.99236       -7.93247       61.63715
C         35.49754       -9.01930       62.48593
C         36.50504      -10.14899       62.58601
O         37.20163      -10.40541       61.61366
C         34.16712       -9.56972       61.94482
C         33.11071       -8.49058       61.91793
C         33.10089       -7.51745       60.90207
C         32.13685       -8.43549       62.92764
C         32.13879       -6.50412       60.90332
C         31.18150       -7.41602       62.93222
C         31.18018       -6.44556       61.91994
O         30.26729       -5.45373       61.91648
H         36.28020       -8.17082       60.67707
H         35.28748       -8.65089       63.51549
H         33.84904      -10.37805       62.64037
H         34.27485      -10.02629       60.93699
H         33.83640       -7.54147       60.10787
H         32.13009       -9.16868       63.72451
H         32.14288       -5.76042       60.11621
H         30.44731       -7.37882       63.72672
H         29.59547       -5.37179       62.60838
N         36.58682      -10.92187       63.71248
C         37.57186      -11.99041       63.86207
C         36.88052      -13.34379       63.91448
O         36.24409      -13.66116       64.91049
C         38.45220      -11.75572       65.13106
C         39.14317      -10.36991       65.06793
C         39.48972      -12.88678       65.29672
C         39.94838      -10.02176       66.32309
H         35.93509      -10.74327       64.49243
H         38.25062      -11.99378       62.98440
H         37.78521      -11.76638       66.02275
H         38.36858       -9.58148       64.95687
H         39.81051      -10.32382       64.18546
H         40.07066      -12.77280       66.23253
H         38.98935      -13.86991       65.38215
H         40.18717      -12.90886       64.43336
H         39.29475      -10.05354       67.22091
H         40.80530      -10.71024       66.46528
H         40.36397       -8.99757       66.22149
N         36.98612      -14.20391       62.86073
C         36.47911      -15.57149       62.88525
C         37.37522      -16.46264       63.73869
O         38.41982      -16.01864       64.19065
C         36.41507      -16.14074       61.45160
O         37.69527      -16.21627       60.87699
H         37.43273      -13.86347       62.00072
H         35.44164      -15.56217       63.28593
H         35.73372      -15.51387       60.82919
H         35.97561      -17.16002       61.45270
H         37.78126      -15.45814       60.24176
N         37.03036      -17.75855       63.97354
C         37.88845      -18.70461       64.68320
C         39.14883      -19.00093       63.88877
O         40.22296      -19.03472       64.47375
C         37.14256      -20.01647       64.93112
H         36.11889      -18.08935       63.62145
H         38.15217      -18.30216       65.68794
H         36.23661      -19.81874       65.54286
H         36.84094      -20.49282       63.97500
H         37.79420      -20.71780       65.49713
N         39.08623      -19.21099       62.53800
C         40.24333      -19.53450       61.69789
C         41.34809      -18.47882       61.70202
O         42.37401      -18.72016       61.08014
C         39.78260      -19.76154       60.25025
H         38.15898      -19.15743       62.08821
H         40.68264      -20.48369       62.07514
H         40.63514      -20.07027       59.60788
H         39.01667      -20.56480       60.21456
H         39.34261      -18.82827       59.83478
N         41.23542      -17.31145       62.39337
C         42.28434      -16.30954       62.48275
C         42.80339      -16.31226       63.90638
O         43.98954      -16.53626       64.10436
C         41.71415      -14.93942       62.08662
C         41.08184      -14.97621       60.68450
C         40.39681      -13.68341       60.39498
O         39.58292      -13.23411       61.18085
O         40.65224      -13.00385       59.27309
H         40.37208      -17.10314       62.90307
H         43.13067      -16.54530       61.79863
H         42.50745      -14.16100       62.13478
H         40.92036      -14.66876       62.81699
H         40.30579      -15.76606       60.64779
H         41.84705      -15.19690       59.90826
N         41.95465      -16.13372       64.95848
C         42.39173      -16.23929       66.33199
H         43.15955      -15.46979       66.55147
H         41.52636      -16.09491       67.01419
H         42.81163      -17.25252       66.51379
H         40.95545      -15.95412       64.78907
Ca        39.82469      -10.93125       59.30364
O         36.51421      -11.57204       56.55046
H         37.46082      -11.45428       56.81496
H         36.54075      -11.65642       55.56506
O         38.45226      -13.91382       57.63827
H         37.76414      -14.15080       56.96778
H         39.30281      -14.23346       57.24515
O         36.22249      -12.47166       59.58548
H         35.97522      -13.06427       58.83209
H         35.64563      -12.76934       60.33294

Ca 1.0



