%chk=holoCaM-CaMKII.loop3.water1.frame267.chk
%nprocshared=20
%mem=10GB
%nosave
#b3lyp/svp scf=(tight,noincore,xqc) Test 
#IOP(5/87=12) Density=Current Pop=(MK,readradii) iop(6/33=2) iop(6/42=6)

holoCaM-CaMKII.loop3.water1.frame267 

   0  1 
C         51.04927       15.60808       37.34642
C         51.16413       14.14242       37.05914
O         51.98799       13.47376       37.66760
H         50.02411       15.82949       37.71417
H         51.78103       15.91571       38.12319
H         51.23711       16.18753       36.41855
N         50.33665       13.57201       36.14205
C         50.32475       12.14942       35.84392
C         50.58947       11.93219       34.36072
O         49.88698       12.50952       33.54174
C         48.95333       11.58170       36.26357
C         48.87684       10.08298       36.19874
O         47.73292        9.46612       36.54692
O         49.84074        9.41741       35.85690
H         49.64885       14.17215       35.65938
H         51.09571       11.61809       36.44539
H         48.15136       12.02362       35.63354
H         48.75733       11.86260       37.32087
N         51.56877       11.07565       33.94532
C         51.84416       10.78949       32.53600
C         50.59444       10.30319       31.82202
O         50.28235       10.80853       30.75260
C         52.91603        9.68163       32.36351
C         54.31356       10.04170       32.89644
C         55.34833        8.91983       32.65509
C         55.65719        8.65334       31.17148
N         56.67372        7.60919       31.03176
H         52.11008       10.57559       34.66583
H         52.21793       11.70714       32.02827
H         53.00282        9.49311       31.27364
H         52.57115        8.74367       32.85076
H         54.25033       10.21026       33.99200
H         54.67415       10.97923       32.42150
H         54.99205        7.97478       33.11042
H         56.29446        9.21633       33.15841
H         56.02483        9.58948       30.69701
H         54.74293        8.32093       30.63713
H         56.33211        6.71465       31.45373
H         56.86393        7.44907       30.01602
H         57.56186        7.90223       31.49989
N         49.84628        9.30471       32.36636
C         48.73924        8.64141       31.68051
C         47.36134        9.02454       32.19409
O         46.38998        8.57953       31.59618
C         48.94477        7.10678       31.75783
C         48.97575        6.53432       33.16965
O         48.81174        7.32755       34.25283
O         49.17247        5.34173       33.32623
H         50.11640        8.98412       33.30329
H         48.73955        8.94324       30.60946
H         49.91482        6.86781       31.27205
H         48.14125        6.59828       31.18063
N         47.17454        9.84153       33.26814
C         45.85261       10.23887       33.73210
C         44.96812        9.09746       34.21440
O         43.82001        9.37776       34.53017
H         47.99027       10.23568       33.75050
H         45.33275       10.75514       32.89512
H         45.95722       10.96709       34.56522
N         45.39188        7.79775       34.28640
C         44.49705        6.69974       34.64517
C         44.00528        6.75587       36.08682
O         43.16884        5.93104       36.42871
C         45.15692        5.32580       34.34816
C         46.31605        4.95179       35.24336
N         46.99084        3.79974       35.02916
O         46.64138        5.67137       36.17151
H         46.35226        7.56228       34.01718
H         43.61476        6.77005       33.96998
H         45.50631        5.33002       33.29230
H         44.39189        4.52538       34.44799
H         46.73115        3.17483       34.25251
H         47.77882        3.53446       35.63804
N         44.47912        7.66756       36.99132
C         44.01402        7.72220       38.36716
C         45.11298        7.53402       39.39237
O         44.76749        7.51172       40.56565
H         45.18352        8.36122       36.70729
H         43.24475        6.94411       38.55844
H         43.53800        8.71053       38.54541
N         46.44128        7.42181       39.07066
C         47.46666        7.28778       40.10157
C         48.90584        7.51975       39.54365
O         49.32202        6.45294       38.72554
C         47.34974        5.94307       40.88156
C         47.44575        4.70892       40.00773
C         48.65337        3.99133       39.92027
C         46.32820        4.25608       39.28179
C         48.75018        2.86284       39.10110
C         46.42120        3.11300       38.48032
C         47.63630        2.41744       38.38167
O         47.74540        1.32250       37.60206
H         46.74371        7.49812       38.09026
H         47.30547        8.12444       40.81898
H         46.40560        5.88164       41.46294
H         48.15665        5.92585       41.64434
H         49.52967        4.32120       40.46654
H         45.37973        4.77552       39.34466
H         49.69416        2.33501       39.02569
H         45.54901        2.77114       37.93480
H         47.00045        0.97888       37.08855
N         49.85919        7.67217       40.66590
C         51.19844        8.13687       40.25918
C         52.24765        7.34269       41.02478
O         52.34891        7.46837       42.23656
C         51.41103        9.69515       40.37445
C         51.39448       10.25789       41.83011
C         50.39342       10.43031       39.48678
C         51.76320       11.74127       41.92716
H         49.47884        8.25832       41.44143
H         51.34223        7.89571       39.18762
H         52.42317        9.90196       39.95860
H         52.16213        9.74987       42.43984
H         50.40519       10.10525       42.30905
H         50.60974       11.51575       39.43043
H         50.45300       10.03889       38.45331
H         49.35945       10.29628       39.86974
H         51.01199       12.38738       41.43231
H         51.80507       12.03870       42.99744
H         52.76427       11.91791       41.47768
N         53.05302        6.45999       40.36999
C         54.14052        5.73868       41.02525
C         55.28140        6.69532       41.36128
O         55.17175        7.87865       41.08268
C         54.64406        4.61340       40.10005
O         55.17052        5.14394       38.91576
H         52.88484        6.28739       39.36957
H         53.75540        5.24759       41.94622
H         53.78788        3.94429       39.86080
H         55.42218        4.01467       40.62130
H         55.52029        4.37240       38.39932
N         56.43538        6.24093       41.92370
C         57.60626        7.09120       42.12697
C         58.11385        7.62891       40.79675
O         58.29320        8.83176       40.66789
C         58.72614        6.29617       42.80745
H         56.49875        5.24461       42.18086
H         57.34631        7.93700       42.80313
H         59.03838        5.43137       42.18373
H         59.60769        6.95150       42.97802
H         58.37628        5.91898       43.79174
N         58.34364        6.77734       39.75542
C         58.85493        7.19099       38.45035
C         58.01018        8.28519       37.82847
O         58.56175        9.31446       37.46356
C         58.90891        5.98662       37.50121
H         58.13384        5.77729       39.90035
H         59.89493        7.56961       38.57183
H         59.32609        6.29083       36.51714
H         59.56068        5.19428       37.92682
H         57.89342        5.56337       37.34254
N         56.66110        8.14011       37.69768
C         55.79757        9.16468       37.11451
C         55.99256       10.48964       37.82964
O         56.34602       11.46343       37.17777
C         54.31108        8.72499       37.13812
C         54.07666        7.51974       36.20934
C         52.62548        7.15632       36.08409
O         52.06392        7.23586       35.00358
O         51.94443        6.69951       37.14579
H         56.23637        7.27375       38.05430
H         56.08375        9.31844       36.04847
H         53.69271        9.56876       36.75852
H         53.98440        8.49096       38.17611
H         54.63826        6.62812       36.55584
H         54.44930        7.79068       35.20724
N         55.83795       10.59081       39.17535
C         56.10121       11.81964       39.89121
H         57.15460       12.13589       39.72029
H         55.41133       12.61786       39.54459
H         55.95631       11.66006       40.98172
H         55.56075        9.76327       39.71311
Ca        49.01669        6.83131       36.47665
O         50.54758        4.06763       35.68472
H         50.47335        3.64104       36.57477
H         50.28523        3.35686       35.04709

Ca 1.0



