%chk=holoCaM-CaMKII.loop4.water2.frame4.chk
%nprocshared=20
%mem=10GB
%nosave
#b3lyp/svp scf=(tight,noincore,xqc) Test 
#IOP(5/87=12) Density=Current Pop=(MK,readradii) iop(6/33=2) iop(6/42=6)

holoCaM-CaMKII.loop4.water2.frame4 

   -3  1 
C         76.85349       74.85924       55.42694
C         76.72387       74.58281       56.89385
O         75.66861       74.16063       57.34374
H         77.67085       74.23387       55.00729
H         75.91051       74.62330       54.89217
H         77.10413       75.92973       55.27225
N         77.79655       74.77998       57.70146
C         77.79228       74.49590       59.12813
C         76.85067       75.44248       59.87412
O         76.92623       76.64150       59.64361
C         79.23693       74.59223       59.65785
C         79.28572       74.06761       61.04531
O         79.65900       74.77168       61.95881
O         78.83983       72.82614       61.28094
H         78.67316       75.10732       57.26380
H         77.46672       73.43969       59.26830
H         79.61336       75.63768       59.60574
H         79.89885       73.94261       59.04515
N         75.96065       74.97294       60.80484
C         74.97223       75.82016       61.47969
C         75.39264       76.09134       62.93175
O         75.71152       77.23411       63.23053
C         73.53972       75.19440       61.35671
C         73.18880       74.89891       59.87181
C         72.47967       76.10355       62.00751
C         71.83256       74.21316       59.67221
H         75.98545       73.97318       61.03873
H         74.94428       76.81115       60.97215
H         73.53081       74.22347       61.89687
H         73.95309       74.20951       59.45966
H         73.20962       75.83464       59.27331
H         72.41351       77.07376       61.47164
H         71.48131       75.61947       61.99955
H         72.72188       76.29253       63.07313
H         70.99257       74.88047       59.95004
H         71.70542       73.94677       58.60102
H         71.77257       73.28636       60.27733
N         75.39078       75.11890       63.89533
C         75.75471       75.36655       65.29651
C         77.24475       75.67727       65.51994
O         77.60187       75.98340       66.64929
C         75.28474       74.21562       66.22873
C         75.93226       72.87701       65.99915
O         76.74600       72.68069       64.95536
O         75.68580       71.94599       66.74744
H         75.03459       74.19594       63.64556
H         75.17749       76.25768       65.63150
H         74.18351       74.09146       66.13359
H         75.49753       74.51731       67.27705
N         78.15680       75.68231       64.50549
C         79.52149       76.17193       64.66342
C         80.48798       75.24740       65.37921
O         81.09001       75.69236       66.34617
H         77.84731       75.46090       63.55110
H         79.49423       77.16923       65.15524
H         79.95791       76.35496       63.66467
N         80.76361       73.98875       64.91331
C         81.86102       73.16754       65.43954
C         82.88009       72.75455       64.36587
O         83.92083       72.23677       64.74796
C         81.32465       71.95837       66.23103
C         80.44232       71.03986       65.43701
O         79.16532       70.84405       65.81656
O         80.88194       70.43793       64.47367
H         80.19548       73.61510       64.14303
H         82.44711       73.76707       66.17034
H         80.73976       72.34705       67.09188
H         82.17688       71.37276       66.64170
N         82.67572       72.94452       63.02612
C         83.67615       72.65262       62.00445
C         83.28490       71.51923       61.07403
O         83.97140       71.33876       60.07828
H         81.78684       73.33236       62.68856
H         84.66496       72.39505       62.44182
H         83.81657       73.57983       61.40691
N         82.25021       70.67375       61.35462
C         81.86719       69.54312       60.50596
C         80.39569       69.63489       60.13911
O         79.71852       70.51447       60.64198
C         82.17656       68.22262       61.23862
C         83.69283       68.03570       61.42163
C         84.01702       66.73518       62.11044
N         84.73652       66.71919       63.25730
O         83.64338       65.68122       61.61724
H         81.72826       70.80467       62.22897
H         82.43734       69.55852       59.55121
H         81.79451       67.36882       60.63917
H         81.66862       68.21285       62.22792
H         84.11242       68.88449       62.00344
H         84.17765       68.02792       60.42148
H         85.07710       67.59363       63.68300
H         84.96689       65.82560       63.71672
N         79.83758       68.78580       59.22380
C         78.45439       68.92108       58.76480
C         77.68025       67.63223       59.01563
O         77.99972       66.60620       58.43182
C         78.43437       69.32045       57.26274
C         76.99849       69.48469       56.73687
C         79.19804       70.63802       57.03650
H         80.42850       68.06107       58.78897
H         77.94741       69.74278       59.31695
H         78.93527       68.52327       56.66966
H         77.01376       69.75939       55.66082
H         76.43515       68.53523       56.82599
H         76.46145       70.27799       57.29946
H         79.19463       70.90358       55.95789
H         78.72911       71.46828       57.60868
H         80.25794       70.54305       57.35257
N         76.63417       67.63275       59.88971
C         75.78835       66.47540       60.17934
C         74.81505       66.24790       59.01207
O         74.73037       67.10064       58.14075
C         74.99949       66.79937       61.48516
C         74.27310       65.68353       62.19630
N         73.46000       65.98248       63.23607
O         74.43329       64.51692       61.88040
H         76.44621       68.50253       60.39760
H         76.45129       65.60134       60.35920
H         74.27513       67.60322       61.25121
H         75.70496       67.20727       62.24253
H         73.31822       66.96102       63.52835
H         72.96147       65.23712       63.74400
N         74.01487       65.14541       58.94610
C         72.94526       64.97537       57.96180
C         71.87848       66.03840       58.16771
O         71.42195       66.62879       57.19969
C         72.30070       63.58061       58.11280
C         71.26267       63.31262       57.04466
C         71.63324       63.28183       55.68819
C         69.92061       63.08141       57.39132
C         70.68067       63.02606       54.69863
C         68.96864       62.82464       56.39842
C         69.34709       62.79517       55.04799
O         68.44217       62.54413       54.08042
H         74.14949       64.39714       59.63165
H         73.37415       65.04798       56.93867
H         71.85160       63.49689       59.12790
H         73.08691       62.80022       58.02679
H         72.66101       63.45110       55.39382
H         69.60905       63.09941       58.42816
H         70.98158       63.00414       53.65861
H         67.93826       62.64703       56.67955
H         67.51065       62.37175       54.27809
N         71.47959       66.35761       59.43262
C         70.53551       67.42119       59.76280
C         70.95167       68.72002       59.09541
O         70.14891       69.32727       58.40031
C         70.51843       67.60485       61.30675
C         69.55644       68.69508       61.80498
C         69.67351       68.86065       63.29595
O         70.73289       69.21006       63.79411
O         68.60862       68.63873       64.08939
H         71.92578       65.85132       60.21329
H         69.51629       67.13944       59.41627
H         71.54728       67.86012       61.64583
H         70.23551       66.64184       61.78645
H         68.51503       68.41563       61.53726
H         69.79510       69.67324       61.33597
N         72.20317       69.20851       59.29725
C         72.65038       70.50648       58.80882
C         72.78496       70.55060       57.29562
O         72.80116       71.64186       56.74259
C         73.99980       70.88614       59.45607
C         73.90842       70.88966       60.99468
C         75.21011       71.23448       61.63788
O         75.25301       72.21462       62.54185
O         76.21964       70.59525       61.40625
H         72.83786       68.64280       59.87118
H         71.89131       71.25561       59.12071
H         74.31161       71.89208       59.10242
H         74.77066       70.14910       59.13854
H         73.62871       69.89453       61.38374
H         73.13034       71.60908       61.32678
N         72.94536       69.41504       56.56247
C         73.10594       69.43218       55.12567
H         73.99216       70.04178       54.84829
H         73.25941       68.39666       54.75209
H         72.19632       69.85211       54.64755
H         72.98502       68.50585       57.03454
Ca        78.12870       72.20025       63.28534
O         78.57084       68.22129       63.43983
H         78.72315       67.91539       64.36933
H         79.45710       68.53755       63.13489
O         76.05155       69.43995       64.44855
H         75.07965       69.33117       64.29463
H         76.20582       69.06213       65.35074

Ca 1.0



