%chk=holoCaM.loop1.water2.frame155.chk
%nprocshared=20
%mem=10GB
%nosave
#b3lyp/svp scf=(tight,noincore,xqc) Test 
#IOP(5/87=12) Density=Current Pop=(MK,readradii) iop(6/33=2) iop(6/42=6)

holoCaM.loop1.water2.frame155 

   0  1 
C         -0.96610       66.47611      -14.00987
C          0.23959       65.93113      -14.71390
O          0.12519       64.97829      -15.47084
H         -1.87880       65.90768      -14.28304
H         -0.81067       66.39543      -12.91185
H         -1.10496       67.54514      -14.27483
N          1.45198       66.49541      -14.48069
C          2.70010       66.00592      -15.05050
C          2.95419       64.58057      -14.59425
O          2.89220       64.32535      -13.39896
C          3.84713       66.91192      -14.57433
C          5.19857       66.53055      -15.08973
O          5.36253       65.62356      -15.88829
O          6.25492       67.20320      -14.62654
H          1.48528       67.30577      -13.84066
H          2.65802       66.06226      -16.15801
H          3.89062       66.88182      -13.46448
H          3.65196       67.96013      -14.89102
N          3.30462       63.61441      -15.49177
C          3.57300       62.23680      -15.10458
C          5.06464       61.94808      -15.18039
O          5.64579       61.59736      -14.16255
C          2.77844       61.25737      -15.99428
C          1.25945       61.50122      -15.94579
C          0.45877       60.42557      -16.70330
C          0.73787       60.38305      -18.21645
N         -0.04767       59.32851      -18.85806
H          3.42442       63.87314      -16.48261
H          3.25742       62.06271      -14.05118
H          2.98985       60.22351      -15.64282
H          3.12359       61.35107      -17.04377
H          1.01921       62.50507      -16.35788
H          0.93132       61.47406      -14.88416
H         -0.62362       60.63332      -16.55483
H          0.68354       59.43252      -16.25734
H          1.81221       60.18161      -18.40919
H          0.47685       61.36356      -18.67041
H          0.15140       59.32718      -19.88464
H          0.21822       58.39644      -18.46386
H         -1.06951       59.49466      -18.71052
N          5.74731       62.04516      -16.35732
C          7.15650       61.66959      -16.50448
C          8.16700       62.65295      -15.88276
O          9.35692       62.43116      -16.06009
C          7.46691       61.31911      -17.98302
C          7.32625       62.43743      -18.97080
O          6.98912       63.67103      -18.57071
O          7.51308       62.22033      -20.15741
H          5.21279       62.29586      -17.20243
H          7.30832       60.69555      -15.98842
H          6.76905       60.50829      -18.29079
H          8.50019       60.91680      -18.05665
N          7.79709       63.69356      -15.07463
C          8.75817       64.51943      -14.34329
C          9.46534       65.59132      -15.15963
O         10.26743       66.31225      -14.58245
H          6.80491       63.83600      -14.85396
H          9.49933       63.86155      -13.83876
H          8.20956       65.06337      -13.54328
N          9.20379       65.79088      -16.48079
C          9.80488       66.85548      -17.29922
C          9.35433       68.28756      -16.94590
O          9.74921       69.20538      -17.65173
C          9.55660       66.55549      -18.79916
C          8.11506       66.39397      -19.21416
O          7.86663       66.03861      -20.35401
O          7.10774       66.52854      -18.32836
H          8.56554       65.12809      -16.93741
H         10.91042       66.82017      -17.17715
H         10.06118       65.58887      -19.02056
H         10.04052       67.33333      -19.42824
N          8.57739       68.57041      -15.86222
C          8.15542       69.91086      -15.47175
C          7.10396       70.55048      -16.36504
O          6.72658       71.67474      -16.05991
H          8.33813       67.81792      -15.22137
H          9.04894       70.57044      -15.40881
H          7.71055       69.85721      -14.45403
N          6.59660       69.94312      -17.47807
C          5.65184       70.59239      -18.39015
C          4.42803       69.72431      -18.68091
O          4.33647       68.60830      -18.18341
C          6.39720       71.00049      -19.68780
C          7.37091       72.16130      -19.43524
O          7.06474       69.90726      -20.26721
H          6.94012       69.00964      -17.73767
H          5.24683       71.52578      -17.93820
H          5.67096       71.38837      -20.43073
H          7.88504       69.72351      -19.73845
H          7.86288       72.45041      -20.38717
H          6.81371       73.04223      -19.04859
H          8.15210       71.88160      -18.69817
N          3.41817       70.22098      -19.46002
C          2.15527       69.54236      -19.74475
C          1.98019       69.33534      -21.25210
O          2.09652       70.28774      -22.01236
C          0.98056       70.35794      -19.11992
C          1.10819       70.47822      -17.57167
C         -0.40133       69.78596      -19.49363
C          0.99803       69.15657      -16.79292
H          3.52014       71.17451      -19.84156
H          2.13194       68.55507      -19.27483
H          1.02151       71.38967      -19.53499
H          0.30564       71.15207      -17.20065
H          2.07878       70.95372      -17.31631
H         -0.51187       68.73721      -19.15675
H         -1.20735       70.39591      -19.03239
H         -0.55515       69.81654      -20.59082
H          0.01349       68.67068      -16.95283
H          1.80323       68.44961      -17.06812
H          1.09461       69.36016      -15.70599
N          1.61256       68.10765      -21.73087
C          1.33610       67.78508      -23.13430
C         -0.16646       67.64521      -23.35354
O         -0.92646       67.94891      -22.44897
C          2.07549       66.48057      -23.55107
C          3.59356       66.61698      -23.47657
O          1.61939       65.37363      -22.80855
H          1.44451       67.36219      -21.04338
H          1.67415       68.60652      -23.80434
H          1.87635       66.26096      -24.61782
H          2.09008       65.36423      -21.93562
H          3.93844       67.45852      -24.11433
H          3.89229       66.79391      -22.43138
H          4.06998       65.68109      -23.83760
N         -0.67170       67.21694      -24.54544
C         -2.09969       67.12484      -24.84563
C         -2.83469       66.22101      -23.85625
O         -3.76852       66.68344      -23.21747
C         -2.30257       66.61593      -26.30214
C         -3.77115       66.62961      -26.73220
O         -1.58307       67.43269      -27.19448
H         -0.00958       66.96821      -25.29311
H         -2.52841       68.15079      -24.78089
H         -1.94272       65.55978      -26.37003
H         -0.86517       66.87713      -27.59938
H         -4.38860       65.98309      -26.07512
H         -4.16799       67.66689      -26.70275
H         -3.85640       66.24879      -27.77278
N         -2.48622       64.91093      -23.71139
C         -3.21436       63.97085      -22.85466
C         -3.14965       64.36764      -21.39474
O         -4.19115       64.41270      -20.75406
C         -2.69499       62.52902      -23.02157
C         -2.90740       62.02298      -24.45858
C         -2.54019       60.54079      -24.59271
C         -2.73723       60.00906      -26.02357
N         -1.81461       60.62697      -26.97947
H         -1.68549       64.56659      -24.25971
H         -4.28483       63.94831      -23.16251
H         -3.27743       61.87381      -22.33483
H         -1.62022       62.46144      -22.74267
H         -2.29064       62.62946      -25.14771
H         -3.97754       62.14348      -24.73886
H         -3.20143       59.95702      -23.91453
H         -1.48692       60.37458      -24.28001
H         -3.78830       60.17188      -26.35193
H         -2.55046       58.91288      -26.01056
H         -1.93272       60.16755      -27.91084
H         -2.01741       61.64449      -27.09609
H         -0.82679       60.49359      -26.66233
N         -1.96477       64.70787      -20.81353
C         -1.84463       65.14878      -19.42184
C         -2.85304       66.24982      -19.12596
O         -3.55844       66.16043      -18.13090
C         -0.42444       65.66954      -19.12855
C          0.68360       64.59953      -19.24951
C          2.04531       65.18361      -18.97755
O          2.16347       66.34434      -18.63744
O          3.15964       64.44841      -19.11181
H         -1.12824       64.71592      -21.41607
H         -2.04740       64.29938      -18.73221
H         -0.39854       66.07349      -18.09147
H         -0.21203       66.50038      -19.83023
H          0.69635       64.17387      -20.27170
H          0.49657       63.77977      -18.52565
N         -3.02594       67.27950      -19.99586
C         -4.02642       68.30510      -19.81010
H         -5.03317       67.84065      -19.73304
H         -3.80772       68.88898      -18.89322
H         -4.02675       68.99088      -20.68516
H         -2.46320       67.30651      -20.84946
Ca         5.06320       65.61613      -18.71146
O          5.60655       67.79093      -21.05439
H          6.14559       67.36426      -21.76660
H          5.20686       68.58340      -21.49423
O          5.06037       64.46598      -21.49970
H          5.68346       64.64960      -22.24653
H          5.17524       63.50184      -21.30927

Ca 1.0



