%chk=holoCaM-CaMKII.loop1.water2.frame192.chk
%nprocshared=20
%mem=10GB
%nosave
#b3lyp/svp scf=(tight,noincore,xqc) Test 
#IOP(5/87=12) Density=Current Pop=(MK,readradii) iop(6/33=2) iop(6/42=6)

holoCaM-CaMKII.loop1.water2.frame192 

   0  1 
C         19.59258       75.84178       27.25313
C         18.82629       77.12941       27.25043
O         19.42096       78.18676       27.40328
H         20.67511       76.02551       27.41648
H         19.20871       75.17935       28.05629
H         19.46137       75.33640       26.27186
N         17.48284       77.10779       27.04530
C         16.67628       78.31525       26.93885
C         16.64568       79.08189       28.26680
O         16.03757       78.60761       29.21615
C         15.25767       77.91004       26.47492
C         14.34809       79.05218       26.18361
O         14.73148       80.19864       26.29490
O         13.09318       78.80505       25.77777
H         17.03486       76.18912       26.89511
H         17.13083       78.94660       26.14128
H         14.78302       77.26904       27.24893
H         15.34076       77.32041       25.53536
N         17.33174       80.25656       28.40981
C         17.40583       81.00605       29.66703
C         16.14399       81.80255       29.99862
O         16.05749       82.28580       31.11913
C         18.60457       82.00414       29.64600
C         18.39050       83.21301       28.70551
C         19.60034       84.15258       28.65276
C         19.33147       85.32070       27.68743
N         20.48064       86.22140       27.61250
H         17.92614       80.55154       27.62874
H         17.61404       80.26789       30.47307
H         19.52322       81.45107       29.35067
H         18.76363       82.40303       30.67148
H         17.51616       83.80150       29.04785
H         18.18032       82.85884       27.68891
H         20.49365       83.59103       28.30593
H         19.80357       84.55158       29.66954
H         18.44003       85.89206       28.03159
H         19.11772       84.92349       26.67037
H         20.68941       86.61776       28.55736
H         21.31601       85.70705       27.24978
H         20.25794       87.00642       26.95808
N         15.23232       82.13541       29.03383
C         14.19711       83.16057       29.22900
C         12.76323       82.69623       29.01778
O         11.87306       83.42500       29.43600
C         14.50339       84.41231       28.35967
C         14.65269       84.17773       26.86384
O         14.93816       85.12053       26.14538
O         14.54141       82.93794       26.33513
H         15.36838       81.73765       28.10246
H         14.22227       83.49943       30.28830
H         15.46090       84.84636       28.71697
H         13.71548       85.17798       28.53329
N         12.43727       81.53986       28.38027
C         11.06643       81.06132       28.27087
C         10.41712       81.32332       26.92707
O          9.30832       80.84202       26.73851
H         13.17595       80.95965       27.97140
H         10.41402       81.52652       29.04114
H         11.07334       79.97053       28.48303
N         10.99159       82.10110       25.95985
C         10.32035       82.39243       24.68930
C         10.30355       81.20522       23.72266
O          9.84963       81.37919       22.59957
C         10.87536       83.68575       24.04062
C         12.31486       83.65517       23.63164
O         13.17572       84.55033       24.14375
O         12.69818       82.88031       22.77790
H         11.88896       82.56435       26.16047
H          9.26085       82.65852       24.90253
H         10.73677       84.51830       24.76411
H         10.27208       83.92796       23.13857
N         10.72216       79.95893       24.09174
C         10.66915       78.80839       23.20989
C         11.74679       78.80453       22.15124
O         11.74281       77.87269       21.35883
H         11.02446       79.78039       25.05240
H          9.65911       78.74114       22.74915
H         10.82328       77.88501       23.81058
N         12.71999       79.76476       22.07863
C         13.81532       79.68970       21.11517
C         15.16237       80.19891       21.70786
O         15.21142       79.95469       23.08783
C         13.47873       80.45923       19.81125
C         12.25390       79.89911       19.07338
O         13.31612       81.83163       20.06579
H         12.74467       80.50724       22.78517
H         13.97391       78.61465       20.86739
H         14.33029       80.35161       19.10774
H         12.42691       81.95851       20.48703
H         12.10029       80.46186       18.12872
H         12.41138       78.82832       18.82601
H         11.33433       80.00111       19.68713
N         16.25182       79.46019       21.03859
C         17.63098       79.64789       21.52760
C         18.40612       80.58396       20.58949
O         18.02738       80.73319       19.43563
C         18.29310       78.23446       21.64564
C         17.43242       77.31160       22.56047
C         19.73952       78.30708       22.17190
C         17.87815       75.84635       22.56364
H         16.16511       79.36265       20.00164
H         17.60284       80.09316       22.54189
H         18.31361       77.78843       20.62605
H         16.38300       77.29880       22.19777
H         17.42786       77.70153       23.60224
H         20.37697       78.90568       21.49628
H         19.76169       78.74532       23.19215
H         20.20927       77.30465       22.20482
H         17.85285       75.43846       21.53017
H         18.89356       75.71918       22.98644
H         17.17980       75.25170       23.19031
N         19.49254       81.27507       21.03862
C         20.29632       82.17251       20.21160
C         21.75728       81.75886       20.28224
O         22.08892       80.82532       20.99669
C         20.14731       83.65155       20.67941
C         18.69196       84.13177       20.68932
O         20.74773       83.87199       21.92929
H         19.77025       81.16031       22.01669
H         19.96088       82.12477       19.15304
H         20.68084       84.30218       19.95515
H         20.18377       83.44595       22.61865
H         18.23997       84.02146       19.68201
H         18.09779       83.54750       21.42003
H         18.65299       85.20225       20.98490
N         22.70249       82.44744       19.59197
C         24.13305       82.19989       19.75115
C         24.56133       82.48630       21.18592
O         25.26642       81.67802       21.77281
C         24.97891       83.05947       18.77436
C         24.69060       82.71957       17.30280
O         24.83791       84.43934       19.01878
H         22.38743       83.19917       18.96386
H         24.35879       81.13643       19.50755
H         26.04816       82.80433       18.94568
H         23.97095       84.74061       18.64402
H         24.87485       81.63954       17.11785
H         23.63973       82.94941       17.03022
H         25.36118       83.30864       16.64300
N         24.14708       83.62804       21.80830
C         24.56213       84.03329       23.15123
C         24.23407       82.95522       24.17700
O         25.12324       82.51738       24.89327
C         23.88731       85.36285       23.59500
C         23.92007       86.53748       22.59276
C         25.31135       86.91548       22.07083
C         25.18897       88.08138       21.07344
N         26.48817       88.44859       20.51409
H         23.50555       84.23405       21.28374
H         25.66187       84.20454       23.13739
H         24.37027       85.68423       24.54459
H         22.81189       85.18226       23.81178
H         23.46544       87.42025       23.09387
H         23.27078       86.30382       21.72484
H         25.76022       86.04504       21.54600
H         25.96862       87.20705       22.91814
H         24.74578       88.96504       21.58493
H         24.51079       87.78632       20.24058
H         26.35617       89.23895       19.84151
H         27.13504       88.75541       21.27577
H         26.90006       87.63597       20.00043
N         22.96489       82.46369       24.26539
C         22.53534       81.40854       25.18444
C         23.41057       80.17737       25.02244
O         24.02583       79.76079       25.99476
C         21.04715       81.05471       24.91491
C         20.08815       82.18099       25.35526
C         18.67787       81.99009       24.84666
O         17.65045       81.78651       25.68124
O         18.43710       82.09701       23.66224
H         22.27458       82.84208       23.60525
H         22.63545       81.75976       26.23637
H         20.75425       80.13340       25.46570
H         20.94692       80.84577       23.83378
H         20.43258       83.17152       24.99399
H         20.09797       82.19987       26.46232
N         23.53733       79.55625       23.82026
C         24.39132       78.40380       23.63311
H         25.44124       78.66448       23.88783
H         24.04927       77.56762       24.27864
H         24.35687       78.07550       22.57253
H         23.02633       79.92001       23.00872
Ca        14.96447       81.93919       24.29437
O         15.46296       83.46467       21.63901
H         15.60533       83.14274       20.71377
H         15.69668       84.42593       21.60589
O         16.96764       84.83862       24.08069
H         17.51535       85.51987       23.61679
H         17.30701       84.83935       25.01039

Ca 1.0



