%chk=holoCaM-CaMKII.loop3.water2.frame491.chk
%nprocshared=20
%mem=10GB
%nosave
#b3lyp/svp scf=(tight,noincore,xqc) Test 
#IOP(5/87=12) Density=Current Pop=(MK,readradii) iop(6/33=2) iop(6/42=6)

holoCaM-CaMKII.loop3.water2.frame491 

   0  1 
C         91.67826       93.55581       82.51696
C         91.95489       94.02133       81.11549
O         92.86538       94.81349       80.92376
H         90.83136       92.83704       82.54688
H         92.57729       93.05333       82.93015
H         91.41796       94.42656       83.15405
N         91.20140       93.55857       80.07906
C         91.39721       93.95796       78.68578
C         91.13451       95.46021       78.57543
O         89.99342       95.87462       78.72622
C         90.41437       93.11648       77.82903
C         90.39734       93.19108       76.32717
O         91.31886       93.81901       75.56962
O         89.49189       92.60209       75.75992
H         90.45960       92.87527       80.30028
H         92.44415       93.70872       78.41170
H         89.39056       93.38656       78.16894
H         90.56653       92.04191       78.06982
N         92.16811       96.34405       78.44958
C         91.98691       97.79555       78.52408
C         91.27349       98.32077       77.29310
O         90.25511       98.98169       77.43851
C         93.34475       98.50768       78.73362
C         93.21652      100.00791       79.03963
C         94.59540      100.61701       79.34725
C         94.48322      102.10592       79.70353
N         95.79410      102.66840       80.03098
H         93.12559       95.96699       78.40827
H         91.39445       98.02449       79.43887
H         93.98813       98.39199       77.84964
H         93.84086       98.03718       79.60844
H         92.56182      100.14016       79.92839
H         92.75970      100.53389       78.17348
H         95.26296      100.49782       78.46539
H         95.04845      100.07773       80.20876
H         93.80860      102.22673       80.58029
H         94.04744      102.66268       78.84461
H         96.20421      102.17076       80.85483
H         96.43908      102.58453       79.21201
H         95.68272      103.67995       80.27185
N         91.74969       98.04700       76.04356
C         91.12692       98.54684       74.81895
C         90.12651       97.56882       74.21636
O         89.55746       97.88950       73.18135
C         92.19724       98.99904       73.79888
C         93.08656       97.90986       73.25408
O         93.92828       98.19583       72.41856
O         92.97361       96.63157       73.66105
H         92.56415       97.42341       75.96440
H         90.53771       99.46035       75.05713
H         92.83989       99.77222       74.27232
H         91.67879       99.47171       72.93578
N         89.79059       96.40210       74.83763
C         88.72425       95.54132       74.35337
C         89.04874       94.74827       73.10166
O         88.15325       94.05264       72.64243
H         90.21610       96.16378       75.74358
H         87.81591       96.16018       74.18416
H         88.46247       94.81189       75.14477
N         90.27274       94.76703       72.48943
C         90.52802       94.00519       71.26625
C         90.43780       92.49009       71.45106
O         90.43012       91.79960       70.44095
C         91.89251       94.35372       70.62625
C         93.10691       93.91807       71.41831
N         94.33698       94.04099       70.87210
O         92.99243       93.43554       72.53519
H         91.01789       95.36293       72.86746
H         89.74489       94.31215       70.53576
H         91.95330       95.44674       70.43338
H         91.93838       93.83808       69.64159
H         94.45624       94.43023       69.92557
H         95.17125       93.73010       71.39018
N         90.38655       91.89940       72.68424
C         90.24198       90.46208       72.86618
C         91.33405       89.78839       73.68337
O         91.24846       88.57256       73.78818
H         90.41371       92.48592       73.52248
H         90.20533       89.94557       71.88353
H         89.27144       90.27002       73.37180
N         92.35673       90.44965       74.31606
C         93.37945       89.71815       75.08639
C         94.11254       90.58513       76.11254
O         93.82370       91.76499       76.21086
C         94.31022       88.93588       74.12657
C         95.11615       89.79005       73.17410
C         96.19773       90.55973       73.63376
C         94.82179       89.78118       71.79785
C         96.97453       91.29378       72.73218
C         95.59096       90.53007       70.90223
C         96.67515       91.28520       71.36758
O         97.43806       91.99980       70.51566
H         92.38401       91.47777       74.28034
H         92.85144       88.97381       75.72381
H         93.67208       88.24874       73.53393
H         95.00434       88.27891       74.69031
H         96.46163       90.57307       74.68232
H         93.99708       89.19353       71.41424
H         97.81981       91.86200       73.09162
H         95.35050       90.51374       69.84659
H         97.26896       92.01715       69.56289
N         95.02234       90.03089       76.97610
C         95.59544       90.73969       78.12658
C         97.11043       90.85448       78.00290
O         97.76155       89.83366       77.82498
C         95.27318       89.96588       79.44694
C         93.79615       89.51636       79.58383
C         95.71612       90.78100       80.68105
C         92.76947       90.64323       79.58319
H         95.26964       89.03643       76.86256
H         95.15481       91.75766       78.21182
H         95.85753       89.01768       79.44494
H         93.68664       88.94202       80.53057
H         93.54841       88.81996       78.75411
H         95.17717       91.75028       80.73564
H         95.52251       90.20934       81.61298
H         96.80348       90.99938       80.64571
H         92.93793       91.33538       80.43055
H         92.80936       91.20162       78.62912
H         91.75351       90.20714       79.68968
N         97.74317       92.05699       78.16845
C         99.20098       92.20589       78.16038
C         99.72754       92.72393       79.50211
O         98.94790       92.98246       80.40848
C         99.61567       93.12885       77.00575
O         99.10212       94.41532       77.20372
H         97.17174       92.89920       78.33509
H         99.68648       91.22166       77.98473
H         99.22620       92.70484       76.05406
H        100.72422       93.17844       76.93940
H         99.44041       94.96584       76.45056
N        101.07339       92.87488       79.68744
C        101.70494       93.32783       80.92835
C        101.27335       94.72457       81.31647
O        100.87958       94.92397       82.45628
C        103.23105       93.31623       80.77826
H        101.69325       92.62842       78.90142
H        101.45158       92.62294       81.75188
H        103.55590       94.00127       79.96575
H        103.71043       93.63816       81.72842
H        103.58066       92.28953       80.54200
N        101.33421       95.74593       80.41823
C        100.91522       97.10844       80.72663
C         99.47235       97.13692       81.18066
O         99.18070       97.71308       82.21978
C        101.06679       98.00129       79.48613
H        101.66781       95.53519       79.46458
H        101.56357       97.53180       81.52600
H        100.44073       97.62825       78.64639
H        100.75648       99.04254       79.72185
H        102.12668       98.01969       79.15617
N         98.51210       96.53332       80.42899
C         97.08942       96.61621       80.74204
C         96.71969       95.92324       82.05242
O         95.59658       96.10181       82.50329
C         96.23939       96.02309       79.60200
C         96.56860       96.63359       78.22212
C         95.62511       96.11800       77.19017
O         95.04340       96.88536       76.44408
O         95.34362       94.81113       77.12848
H         98.82113       96.03708       79.58315
H         96.83656       97.69696       80.82835
H         95.16951       96.19358       79.84219
H         96.40464       94.92317       79.55369
H         97.58406       96.34543       77.90225
H         96.51460       97.74343       78.25398
N         97.59398       95.10473       82.70503
C         97.30580       94.44245       83.96053
H         96.29789       94.69049       84.35196
H         97.37426       93.34310       83.82060
H         98.06087       94.75109       84.71477
H         98.51192       94.91642       82.29474
Ca        93.38808       94.41820       76.13979
O         95.83361       95.81419       73.06755
H         96.80782       95.95292       72.96539
H         95.45944       96.07462       72.18978
O         97.03852       93.76423       74.83606
H         97.17197       94.56432       75.39933
H         97.67309       93.90141       74.09010

Ca 1.0



