%chk=holoCaM.loop4.water3.frame152.chk
%nprocshared=20
%mem=10GB
%nosave
#b3lyp/svp scf=(tight,noincore,xqc) Test 
#IOP(5/87=12) Density=Current Pop=(MK,readradii) iop(6/33=2) iop(6/42=6)

holoCaM.loop4.water3.frame152 

   -3  1 
C          5.82978       90.56025       -6.59883
C          5.38008       90.37318       -5.17631
O          5.42061       89.25059       -4.69624
H          6.88955       90.23439       -6.68975
H          5.20758       89.95002       -7.28446
H          5.77346       91.62476       -6.90940
N          4.98951       91.44360       -4.42472
C          4.70351       91.36842       -2.99523
C          3.35116       91.98164       -2.64482
O          3.08968       93.10462       -3.05341
C          5.82176       92.11669       -2.25887
C          5.65001       92.02767       -0.77483
O          5.62850       90.93732       -0.22711
O          5.50997       93.15052       -0.04587
H          4.99141       92.37770       -4.86309
H          4.74148       90.31976       -2.64037
H          5.83719       93.18268       -2.57356
H          6.80023       91.65880       -2.52217
N          2.47589       91.32080       -1.82319
C          1.19525       91.87129       -1.38110
C          1.10523       92.02024        0.14507
O          0.13100       92.61576        0.58524
C         -0.00160       91.01428       -1.91330
C         -0.00880       89.57524       -1.32148
C         -0.00027       90.99976       -3.45317
C         -1.23094       88.74313       -1.71891
H          2.73950       90.39776       -1.46989
H          1.07767       92.89691       -1.79516
H         -0.94106       91.51757       -1.59121
H         -0.01233       89.63840       -0.21294
H          0.89721       89.02150       -1.63020
H         -0.01090       92.03918       -3.84395
H          0.89722       90.47636       -3.84568
H         -0.90658       90.49981       -3.85106
H         -1.25794       88.55421       -2.81105
H         -1.18176       87.75479       -1.21382
H         -2.16618       89.25351       -1.40609
N          2.01768       91.47837        1.01784
C          1.81480       91.50572        2.47324
C          3.09542       91.65686        3.31095
O          2.97367       91.72035        4.52683
C          0.99468       90.26914        2.90980
C          1.65036       88.93726        2.66718
O          2.74761       88.85503        2.14316
O          1.00722       87.81307        3.03409
H          2.77130       90.89061        0.64312
H          1.18983       92.38866        2.73333
H          0.02540       90.27465        2.36568
H          0.77028       90.35089        3.99504
N          4.33989       91.75872        2.76015
C          5.55351       91.99643        3.53871
C          6.02998       90.83666        4.40446
O          7.01860       91.01910        5.10066
H          4.43456       91.75361        1.74322
H          5.39500       92.89394        4.17497
H          6.38562       92.22588        2.83789
N          5.41445       89.62156        4.41136
C          5.84613       88.49521        5.24984
C          7.27997       88.01004        5.00739
O          7.78321       87.29981        5.86721
C          4.86798       87.30171        5.10157
C          4.69241       86.85220        3.66890
O          5.33005       87.50220        2.67566
O          3.90451       85.96027        3.40154
H          4.58056       89.50431        3.82416
H          5.80819       88.84430        6.30588
H          3.86909       87.62262        5.46815
H          5.20577       86.44831        5.72897
N          7.98342       88.29644        3.87368
C          9.36682       87.87623        3.66286
C          9.53016       86.77820        2.62422
O         10.66921       86.45441        2.31674
H          7.52917       88.83056        3.12324
H          9.82464       87.49174        4.60039
H          9.95164       88.77172        3.36248
N          8.46505       86.10884        2.09527
C          8.58376       84.98149        1.16796
C          7.76259       85.22072       -0.08787
O          7.09428       86.23852       -0.18180
C          8.02574       83.71383        1.85702
C          8.82822       83.29190        3.09281
C          8.23353       82.04757        3.70399
N          6.97874       82.05745        4.21387
O          8.89210       81.01891        3.73954
H          7.51777       86.35969        2.40646
H          9.64137       84.80512        0.87194
H          8.04355       82.85571        1.15228
H          6.96556       83.90198        2.13854
H          8.83697       84.09890        3.85542
H          9.87640       83.08833        2.78003
H          6.40992       82.91654        4.20435
H          6.57431       81.20355        4.62602
N          7.70800       84.26888       -1.06605
C          6.72965       84.28816       -2.14659
C          5.80803       83.09093       -1.98666
O          6.25062       81.95652       -2.10454
C          7.35636       84.31339       -3.57567
C          7.91688       85.69682       -3.91734
C          8.43976       83.24632       -3.81023
H          8.31047       83.43594       -0.98346
H          6.09339       85.19366       -2.07189
H          6.53161       84.13504       -4.30397
H          7.10601       86.45178       -3.86023
H          8.74009       85.97953       -3.22988
H          8.29228       85.70627       -4.96382
H          9.31261       83.41920       -3.14654
H          8.05832       82.22153       -3.64584
H          8.78998       83.29337       -4.86343
N          4.48231       83.28107       -1.73891
C          3.49840       82.20453       -1.75977
C          3.44504       81.63972       -3.17745
O          4.02841       82.23135       -4.07032
C          2.13780       82.79497       -1.28782
C          0.98249       81.84048       -1.09298
N          0.45073       81.64609        0.13697
O          0.48182       81.27683       -2.04975
H          4.15040       84.23507       -1.57080
H          3.82447       81.42095       -1.04082
H          1.81656       83.60144       -1.98445
H          2.33795       83.26586       -0.30423
H          0.83198       82.12570        0.96529
H         -0.35487       81.01522        0.26179
N          2.79765       80.48432       -3.46565
C          2.70531       79.94851       -4.82526
C          2.02739       80.93788       -5.76742
O          2.55020       81.19011       -6.84397
C          2.03526       78.55116       -4.80954
C          0.66136       78.49346       -4.17460
C         -0.47713       78.98112       -4.83808
C          0.51308       77.92944       -2.89461
C         -1.73109       78.93261       -4.22149
C         -0.73932       77.88191       -2.27998
C         -1.86464       78.38588       -2.93709
O         -3.06560       78.33623       -2.32711
H          2.37536       79.96206       -2.68678
H          3.73356       79.77184       -5.21662
H          2.72243       77.90938       -4.21478
H          2.00121       78.11073       -5.82925
H         -0.39839       79.39910       -5.83273
H          1.37188       77.53989       -2.36183
H         -2.59699       79.32055       -4.74276
H         -0.83232       77.45544       -1.28925
H         -3.86961       78.67481       -2.74558
N          0.88323       81.57117       -5.39576
C          0.14300       82.51451       -6.22578
C          1.01748       83.68335       -6.63889
O          1.07787       83.98225       -7.82348
C         -1.12453       82.95581       -5.46053
C         -2.06910       83.82990       -6.29275
C         -3.37367       84.01711       -5.56812
O         -3.40227       84.60579       -4.35718
O         -4.41390       83.61797       -6.06809
H          0.51375       81.36656       -4.45985
H         -0.20213       81.98809       -7.14389
H         -0.85318       83.47829       -4.51577
H         -1.67798       82.02608       -5.19650
H         -2.27053       83.32965       -7.26548
H         -1.60468       84.81921       -6.49090
N          1.77129       84.35071       -5.72257
C          2.67388       85.44295       -6.08150
C          3.68147       84.99883       -7.12806
O          3.73914       85.61119       -8.18523
C          3.41009       85.97905       -4.84166
C          2.43194       86.62081       -3.85330
C          3.18653       87.24525       -2.73604
O          3.93301       86.50086       -1.91429
O          3.14722       88.44541       -2.58142
H          1.72153       84.04024       -4.74034
H          2.08117       86.28312       -6.50979
H          4.12707       86.76433       -5.17266
H          3.98972       85.16944       -4.34274
H          1.71915       85.88149       -3.43365
H          1.85254       87.41149       -4.37918
N          4.48844       83.92632       -6.90863
C          5.44633       83.42413       -7.87057
H          6.45707       83.41664       -7.41221
H          5.17069       82.38447       -8.14759
H          5.47949       84.03672       -8.79523
H          4.40857       83.41984       -6.02382
Ca         4.74342       87.44768        0.51426
O          2.25086       85.65015        0.51937
H          2.10049       86.49851        1.00279
H          3.12342       85.32239        0.85418
O          6.69837       88.59676       -2.02835
H          7.55621       88.11534       -2.13390
H          6.02399       87.99438       -2.42791
O          7.65482       89.13648        0.63595
H          7.92195       90.02872        0.97177
H          8.49293       88.73657        0.29459

Ca 1.0



