%chk=holoCaM.loop2.water2.frame355.chk
%nprocshared=20
%mem=10GB
%nosave
#b3lyp/svp scf=(tight,noincore,xqc) Test 
#IOP(5/87=12) Density=Current Pop=(MK,readradii) iop(6/33=2) iop(6/42=6)

holoCaM.loop2.water2.frame355 

   -2  1 
C          5.73113       -2.17569       96.81029
C          5.43395       -3.64771       96.89564
O          5.17319       -4.27124       95.87898
H          6.64378       -2.02585       96.19454
H          4.88094       -1.63072       96.35634
H          5.93179       -1.74277       97.81555
N          5.50939       -4.27512       98.09537
C          5.42819       -5.71776       98.28046
C          4.08832       -6.35253       97.91080
O          3.04750       -5.75262       98.13582
C          5.76994       -6.01903       99.74973
C          5.88728       -7.46952      100.00430
O          6.59805       -8.23710       99.15510
O          5.26626       -7.96720      100.92839
H          5.74787       -3.69718       98.91726
H          6.21800       -6.17426       97.64833
H          5.01208       -5.57330      100.42815
H          6.74734       -5.57114       99.99631
N          4.07245       -7.62235       97.39000
C          2.86778       -8.39932       97.09480
C          2.89400       -9.85056       97.64360
O          1.84497      -10.47865       97.61590
C          2.67602       -8.43918       95.57617
H          4.97754       -8.04280       97.17010
H          1.98552       -7.88280       97.53311
H          1.74419       -8.97929       95.30575
H          2.60545       -7.40287       95.17978
H          3.53952       -8.94268       95.09034
N          4.04073      -10.47644       98.06823
C          4.12018      -11.88257       98.52821
C          4.86133      -12.05411       99.87267
O          4.89416      -13.16632      100.37938
C          4.78532      -12.76784       97.42616
C          6.17187      -12.30795       97.04291
O          6.72475      -11.34942       97.79254
O          6.74882      -12.75780       96.06655
H          4.91357       -9.95555       97.98543
H          3.09167      -12.27686       98.67824
H          4.14142      -12.69940       96.52443
H          4.82036      -13.83305       97.74476
N          5.46578      -11.00984      100.50932
C          6.12922      -11.08635      101.81005
C          7.48739      -11.77615      101.82696
O          8.04087      -11.92446      102.90686
H          5.39690      -10.09413      100.08070
H          5.44079      -11.57510      102.52911
H          6.31553      -10.05240      102.17488
N          8.09520      -12.20398      100.68839
C          9.37416      -12.91796      100.62227
C         10.62962      -12.11960      101.03693
O         11.71894      -12.65006      100.86216
C          9.53628      -13.51030       99.20360
C          9.70943      -12.50621       98.10566
N          9.82922      -12.94290       96.83899
O          9.74822      -11.31032       98.33993
H          7.58320      -12.07856       99.81367
H          9.31122      -13.80421      101.28868
H          8.63175      -14.11566       98.96999
H         10.41428      -14.18878       99.17652
H          9.78559      -13.94449       96.61104
H          9.96995      -12.27716       96.08483
N         10.57883      -10.89143      101.63576
C         11.75865      -10.19467      102.14000
C         12.51789       -9.40335      101.09245
O         13.52539       -8.80399      101.44179
H          9.67423      -10.47479      101.86201
H         12.42957      -10.92344      102.64722
H         11.43459       -9.46031      102.90671
N         12.10852       -9.35884       99.79527
C         12.83402       -8.69106       98.72267
C         11.87018       -8.07667       97.70672
O         10.84070       -8.66507       97.40914
C         13.73164       -9.72854       97.99771
C         14.91018      -10.16605       98.87438
O         13.00367      -10.87802       97.64060
H         11.29261       -9.91334       99.52645
H         13.50151       -7.88734       99.11410
H         14.17976       -9.26216       97.09042
H         12.28516      -10.60462       97.01734
H         14.56142      -10.68096       99.79288
H         15.55337      -10.87338       98.30986
H         15.52877       -9.28805       99.16136
N         12.20737       -6.93425       97.04841
C         11.44783       -6.40593       95.91186
C         11.55764       -7.37394       94.73062
O         12.66325       -7.74899       94.36826
C         11.93844       -4.96519       95.56158
C         11.64027       -4.00334       96.75441
C         11.25726       -4.42130       94.28879
C         12.19651       -2.59114       96.56505
H         13.08012       -6.45603       97.32317
H         10.38722       -6.29281       96.16070
H         13.03267       -5.01865       95.37293
H         12.08339       -4.40252       97.68973
H         10.53958       -3.92951       96.91662
H         11.74192       -3.47804       93.96614
H         11.36270       -5.12263       93.44038
H         10.17762       -4.22796       94.46701
H         13.29419       -2.63636       96.41076
H         11.71952       -2.07578       95.70682
H         11.98778       -1.98441       97.47214
N         10.43697       -7.75550       94.04449
C         10.44186       -8.56744       92.82467
C         10.12313       -7.69785       91.64216
O          9.89493       -6.52502       91.83312
C          9.41943       -9.70506       92.90562
C          9.71339      -10.56873       94.06737
O          9.21410      -10.23032       95.26985
O         10.54267      -11.45878       93.96632
H          9.53783       -7.37290       94.34231
H         11.45677       -8.98141       92.64699
H          9.44244      -10.32805       91.98556
H          8.38724       -9.30619       93.00881
N         10.17884       -8.18140       90.37426
C         10.15420       -7.30642       89.20974
C          8.87169       -6.48915       89.03937
O          9.02418       -5.27747       88.96183
C         10.62733       -8.07436       87.96176
C         10.90086       -7.19016       86.76940
C         11.76202       -6.07804       86.87152
C         10.33133       -7.49954       85.52469
C         12.03661       -5.29169       85.75242
C         10.62389       -6.71858       84.40297
C         11.47375       -5.61498       84.51714
H         10.40577       -9.17805       90.24071
H         10.95726       -6.56260       89.39642
H          9.93343       -8.89594       87.70263
H         11.59914       -8.54691       88.22535
H         12.22956       -5.80979       87.80893
H          9.67927       -8.35737       85.41691
H         12.69506       -4.43725       85.84392
H         10.19643       -6.97404       83.44305
H         11.70136       -5.01276       83.64818
N          7.59223       -6.98363       88.96754
C          6.43740       -6.09764       88.84123
C          6.27758       -5.18180       90.06215
O          5.63603       -4.14709       89.95591
C          5.24014       -7.04398       88.67509
C          5.89480       -8.31594       88.14962
C          7.19505       -8.37022       88.94761
H          6.59367       -5.50365       87.91319
H          4.81596       -7.29356       89.67175
H          4.43028       -6.63948       88.02603
H          5.26255       -9.22745       88.22396
H          6.16343       -8.15179       87.08204
H          6.99801       -8.69685       89.99341
H          7.91191       -9.04953       88.45616
N          6.84136       -5.52124       91.26054
C          6.84330       -4.66996       92.45182
C          7.74157       -3.46101       92.20526
O          7.39596       -2.35334       92.58724
C          7.33818       -5.45179       93.69929
C          6.52408       -6.75224       93.91812
C          6.90504       -7.53523       95.13131
O          7.84567       -7.09396       95.97670
O          6.36533       -8.60870       95.33995
H          7.31602       -6.43023       91.32215
H          5.80622       -4.35128       92.69758
H          7.24858       -4.79763       94.59344
H          8.40802       -5.69003       93.59439
H          6.68141       -7.44540       93.07071
H          5.44463       -6.50988       93.99304
N          8.92363       -3.62700       91.54909
C          9.85226       -2.57757       91.21079
H         10.75623       -3.03309       90.74162
H          9.39274       -1.89432       90.46837
H         10.17047       -2.03217       92.12001
H          9.17587       -4.55388       91.22976
Ca         7.82627       -9.42838       97.67707
O          8.95625       -8.79758      100.25783
H          9.58957       -8.13250       99.89650
H          8.74775       -8.47123      101.16773
O          8.70000       -6.30840       98.60674
H          8.73827       -5.42783       99.04652
H          9.07736       -6.11969       97.72513

Ca 1.0



