%chk=holoCaM.loop1.water2.frame346.chk
%nprocshared=20
%mem=10GB
%nosave
#b3lyp/svp scf=(tight,noincore,xqc) Test 
#IOP(5/87=12) Density=Current Pop=(MK,readradii) iop(6/33=2) iop(6/42=6)

holoCaM.loop1.water2.frame346 

   0  1 
C         16.74245        9.96928      109.23676
C         16.57841       10.24806      110.70072
O         17.55913       10.24601      111.43003
H         17.80914        9.80104      108.98050
H         16.16573        9.05557      108.97499
H         16.35322       10.82314      108.64421
N         15.33522       10.48655      111.19808
C         15.04686       10.68609      112.61756
C         15.45754        9.43292      113.37509
O         14.83171        8.39497      113.20900
C         13.55509       11.06150      112.74090
C         12.89393       10.98465      114.07972
O         13.29667       11.64531      115.17702
O         11.89164       10.29605      114.17272
H         14.55650       10.50139      110.51956
H         15.64258       11.54076      112.98997
H         12.97135       10.37226      112.08899
H         13.42456       12.08639      112.33268
N         16.60898        9.44059      114.11505
C         17.23056        8.21914      114.61252
C         16.56761        7.77609      115.90691
O         15.98290        6.70351      115.94997
C         18.76415        8.43479      114.78528
C         19.57773        7.12708      114.83470
C         19.65835        6.46907      113.44077
C         20.47079        5.17209      113.44955
N         20.54285        4.60638      112.10059
H         17.15743       10.31121      114.14332
H         17.09068        7.45310      113.82659
H         18.96049        9.03873      115.69548
H         19.16634        9.02557      113.93192
H         19.15105        6.43776      115.59435
H         20.61857        7.37770      115.13799
H         20.13853        7.18592      112.73679
H         18.65040        6.22538      113.05555
H         19.98177        4.44066      114.12997
H         21.50056        5.37068      113.82037
H         19.58073        4.42129      111.73305
H         21.03839        5.26825      111.45924
H         21.07096        3.70510      112.13045
N         16.61178        8.58789      117.00367
C         15.96617        8.29708      118.28980
C         14.43622        8.18169      118.21343
O         13.84553        7.80864      119.21790
C         16.36614        9.36240      119.35617
C         16.06852       10.78466      118.93471
O         15.57121       11.00048      117.70281
O         16.33946       11.71796      119.67123
H         17.15925        9.45518      116.91503
H         16.34645        7.31382      118.64447
H         17.46130        9.29147      119.53330
H         15.85389        9.13795      120.31731
N         13.72460        8.44599      117.07911
C         12.28913        8.22359      116.96938
C         11.46362        9.13568      117.85288
O         10.67084        8.64528      118.64346
H         14.20820        8.77235      116.23174
H         12.06283        7.15654      117.18636
H         11.98109        8.41578      115.92087
N         11.57577       10.48563      117.72760
C         10.75976       11.46681      118.43867
C          9.97349       12.36205      117.46637
O          9.36297       13.32243      117.91528
C         11.64774       12.28004      119.41119
C         12.71672       13.13642      118.78965
O         12.85319       13.20285      117.58330
O         13.53296       13.85342      119.58391
H         12.28193       10.83704      117.07839
H         10.01022       10.95649      119.08260
H         12.14209       11.56437      120.10334
H         10.99625       12.94466      120.01804
N          9.88234       12.06639      116.13374
C          9.07475       12.81555      115.17930
C          9.70512       14.09319      114.65047
O          9.07860       14.71561      113.80573
H         10.30224       11.19592      115.78877
H          8.06876       13.01479      115.60920
H          8.92427       12.17378      114.28346
N         10.92581       14.54316      115.06269
C         11.57068       15.74131      114.51327
C         12.96477       15.43632      113.96429
O         13.49873       14.36127      114.18725
C         11.63490       16.87440      115.58749
C         10.25829       17.49981      115.80028
O         12.10186       16.43359      116.84023
H         11.41979       14.01772      115.79019
H         10.99470       16.12514      113.64289
H         12.29680       17.69222      115.22718
H         12.64479       15.62043      116.71665
H          9.53022       16.74598      116.16444
H         10.33509       18.31631      116.55091
H          9.89073       17.94094      114.84928
N         13.58834       16.37203      113.18610
C         14.92622       16.24173      112.60790
C         15.77764       17.41809      113.07938
O         15.31103       18.54862      113.08621
C         14.84284       16.11285      111.05213
C         14.20393       14.73315      110.70838
C         16.23791       16.23664      110.40166
C         14.09368       14.41309      109.21559
H         13.07058       17.23725      112.96828
H         15.42513       15.31478      112.96126
H         14.21814       16.93763      110.64305
H         13.18140       14.68902      111.13962
H         14.80850       13.92074      111.17158
H         16.16745       16.19651      109.29591
H         16.69535       17.22059      110.63199
H         16.91320       15.43003      110.75052
H         13.49113       15.18237      108.69167
H         15.09509       14.33290      108.74409
H         13.60328       13.42342      109.09177
N         17.06666       17.19878      113.46701
C         17.95581       18.19872      114.05214
C         19.06323       18.57979      113.08356
O         19.06268       18.11523      111.95273
C         18.59319       17.60572      115.34241
C         17.54759       17.09807      116.32050
O         19.44528       16.54064      115.00030
H         17.44339       16.25075      113.36044
H         17.39229       19.12334      114.30842
H         19.17456       18.40222      115.85638
H         20.10616       16.44319      115.73435
H         18.04397       16.72226      117.23921
H         16.84159       17.90930      116.59448
H         17.00719       16.25195      115.85192
N         20.07476       19.40042      113.48859
C         21.24314       19.71273      112.67314
C         21.95967       18.43945      112.24574
O         22.15598       18.25811      111.05299
C         22.23133       20.64306      113.43312
C         21.64125       22.04028      113.65841
O         22.58800       20.07437      114.66863
H         20.03437       19.78839      114.44163
H         20.91932       20.24748      111.75105
H         23.14136       20.76102      112.79882
H         23.38902       20.56068      114.99592
H         21.39553       22.51016      112.68272
H         20.72589       21.99995      114.28320
H         22.38834       22.68230      114.17253
N         22.39972       17.52503      113.15901
C         23.16225       16.34326      112.76856
C         22.34590       15.40156      111.90068
O         22.80129       15.06050      110.81723
C         23.75348       15.58918      113.98062
C         24.69351       16.49285      114.80874
C         25.71910       15.66689      115.60259
C         26.71708       16.54319      116.38140
N         26.11104       17.15572      117.56352
H         22.21942       17.69384      114.15849
H         24.04557       16.67820      112.17855
H         24.35347       14.75882      113.54576
H         22.97615       15.13919      114.63788
H         24.08795       17.15483      115.46315
H         25.28550       17.13328      114.11923
H         26.30964       15.09051      114.85589
H         25.22797       14.94352      116.28758
H         27.14192       17.32687      115.71341
H         27.55959       15.90001      116.71856
H         25.31064       17.77276      117.30288
H         25.78562       16.40607      118.21688
H         26.83357       17.73100      118.05420
N         21.12425       14.95017      112.30305
C         20.31349       14.02168      111.50756
C         19.96227       14.58475      110.13457
O         19.55175       13.81457      109.27710
C         18.99061       13.69791      112.23017
C         19.18484       13.00313      113.58891
C         17.91623       12.93212      114.39095
O         16.87821       13.42978      113.98428
O         17.93986       12.34547      115.60198
H         20.76883       15.28964      113.20712
H         20.90175       13.08830      111.36225
H         18.33901       13.05317      111.59763
H         18.47327       14.66119      112.37529
H         19.90838       13.55366      114.21934
H         19.57507       11.97788      113.41507
N         20.05353       15.91539      109.86215
C         19.72246       16.47125      108.57040
H         19.82958       17.57710      108.60072
H         20.41248       16.06751      107.80048
H         18.67340       16.22406      108.30403
H         20.34658       16.56735      110.59582
Ca        15.10870       12.54483      116.13451
O         17.40054       14.13861      118.32268
H         16.45447       13.99479      118.57511
H         17.72777       14.80644      118.97581
O         14.99376       15.65085      117.06642
H         14.77336       16.43739      116.50469
H         15.31675       16.04063      117.91610

Ca 1.0



