%chk=holoCaM.loop2.water2.frame120.chk
%nprocshared=20
%mem=10GB
%nosave
#b3lyp/svp scf=(tight,noincore,xqc) Test 
#IOP(5/87=12) Density=Current Pop=(MK,readradii) iop(6/33=2) iop(6/42=6)

holoCaM.loop2.water2.frame120 

   -2  1 
C          5.45301        6.65570        3.94398
C          6.16832        7.97835        3.95309
O          6.43382        8.51813        5.01677
H          4.50599        6.74176        3.37053
H          6.09661        5.89225        3.45495
H          5.22122        6.31344        4.97441
N          6.52632        8.54803        2.77176
C          7.28980        9.78650        2.64891
C          6.56562       10.99333        3.23558
O          5.38840       11.18588        2.96841
C          7.60111       10.04991        1.16525
C          8.51587       11.22516        0.97763
O          8.49542       11.84893       -0.07028
O          9.48674       11.47211        1.87736
H          6.27706        8.03930        1.90844
H          8.26348        9.63943        3.16992
H          6.65912       10.20566        0.59679
H          8.11094        9.16221        0.73641
N          7.25617       11.87227        4.01708
C          6.69707       13.05271        4.66073
C          7.43004       14.35750        4.28859
O          7.07915       15.38640        4.84924
C          6.76256       12.80029        6.17161
H          8.24321       11.67646        4.19627
H          5.62806       13.18265        4.39026
H          6.18248       11.88076        6.40934
H          7.81237       12.64104        6.50317
H          6.32117       13.64295        6.74146
N          8.45817       14.40038        3.38480
C          9.22741       15.60759        3.06339
C          9.41622       15.81280        1.55178
O          9.15018       16.91656        1.09542
C         10.54588       15.63665        3.86791
C         11.29333       14.34174        3.91450
O         11.72494       13.82158        2.90615
O         11.48309       13.74359        5.10264
H          8.76974       13.52652        2.95298
H          8.70345       16.52164        3.42583
H         10.28074       15.86441        4.92515
H         11.19911       16.46399        3.51278
N          9.86924       14.82919        0.71494
C         10.06515       15.01042       -0.72648
C         11.50656       14.79276       -1.16958
O         11.77317       14.87960       -2.35966
H         10.06476       13.89646        1.09731
H          9.77597       16.03341       -1.05098
H          9.41134       14.29114       -1.26325
N         12.49588       14.55781       -0.26511
C         13.92196       14.47186       -0.57809
C         14.35842       13.17104       -1.27152
O         15.55407       12.99852       -1.46515
C         14.71785       14.76836        0.71852
C         14.54800       13.77333        1.83117
N         15.03179       14.06030        3.05712
O         13.95753       12.72319        1.64780
H         12.23746       14.56534        0.72406
H         14.18460       15.31746       -1.24997
H         14.34819       15.74767        1.09942
H         15.80133       14.87923        0.50671
H         15.49728       14.95800        3.25004
H         14.91409       13.39331        3.82274
N         13.46413       12.24184       -1.72612
C         13.84264       11.04458       -2.47003
C         14.44226        9.92576       -1.63752
O         14.74554        8.89218       -2.21729
H         12.45852       12.42279       -1.63767
H         14.53506       11.32421       -3.29451
H         12.92715       10.61954       -2.93496
N         14.64742       10.04126       -0.29472
C         15.21943        8.98734        0.53399
C         14.30198        8.74126        1.75998
O         14.61002        9.67661        2.74115
C         16.66344        9.39167        0.96571
C         17.62332        9.44407       -0.22349
O         16.68629       10.62815        1.64483
H         14.41183       10.92232        0.16600
H         15.27945        8.03607       -0.04242
H         17.05596        8.62013        1.66251
H         16.47285       11.34929        0.99654
H         17.27263       10.17730       -0.98008
H         18.62838        9.75578        0.13087
H         17.70004        8.44163       -0.69233
N         14.44836        7.37945        2.30964
C         13.85563        7.17783        3.65242
C         14.74352        7.66698        4.80514
O         15.79342        7.09971        5.07167
C         13.35573        5.69888        3.75118
C         11.91717        5.67393        3.16956
C         13.39489        5.09168        5.16752
C         11.29901        4.29770        2.98928
H         15.38163        6.92244        2.18037
H         12.95702        7.81713        3.72240
H         14.03304        5.06245        3.13794
H         11.92474        6.16061        2.16989
H         11.25381        6.26372        3.84420
H         14.43685        5.06571        5.54912
H         12.75526        5.65489        5.87493
H         13.07351        4.03022        5.14161
H         11.20166        3.76596        3.95549
H         10.27756        4.42712        2.57052
H         11.90800        3.70353        2.27886
N         14.32587        8.74557        5.54312
C         14.97893        9.25980        6.73758
C         14.66373        8.35793        7.92061
O         13.90291        7.40660        7.77730
C         14.42819       10.67210        7.08053
C         14.59650       11.68931        5.99395
O         13.52344       12.11803        5.29482
O         15.65423       12.29080        5.89717
H         13.47152        9.22859        5.25451
H         16.07448        9.33165        6.56111
H         14.93554       11.08371        7.97901
H         13.34315       10.59708        7.30726
N         15.20007        8.61707        9.14059
C         14.90104        7.83752       10.33097
C         13.43298        7.98668       10.78616
O         12.84176        6.95894       11.05906
C         15.92509        8.14363       11.43563
C         15.65452        7.32481       12.66662
C         15.71172        5.91839       12.63169
C         15.31888        7.97260       13.86247
C         15.42374        5.17776       13.78056
C         15.03152        7.22934       15.00663
C         15.08096        5.83327       14.96645
H         15.88060        9.39072        9.21778
H         15.06764        6.76367       10.08368
H         15.91770        9.22141       11.67682
H         16.94684        7.90725       11.06158
H         15.97233        5.39421       11.71980
H         15.26850        9.05367       13.90342
H         15.46207        4.09635       13.75001
H         14.76546        7.73978       15.92165
H         14.85262        5.26054       15.85441
N         12.76067        9.18308       10.90867
C         11.33367        9.28116       11.24631
C         10.37759        8.52935       10.31989
O          9.22351        8.35755       10.69290
C         11.03611       10.77856       11.10273
C         12.35068       11.39831       11.49950
C         13.35437       10.49209       10.78876
H         11.22430        8.91408       12.29104
H         10.89943       11.02422       10.02190
H         10.14053       11.13152       11.65761
H         12.46090       12.47797       11.26586
H         12.45706       11.25477       12.59964
H         13.46173       10.73861        9.71735
H         14.31438       10.59696       11.32496
N         10.77332        8.07174        9.09917
C          9.92233        7.30374        8.18767
C         10.19822        5.82018        8.34058
O          9.35172        5.02104        7.96933
C         10.19696        7.75124        6.74651
C          9.74569        9.20732        6.53531
C         10.40776        9.83595        5.35621
O         11.14885        9.18836        4.64791
O         10.26729       11.15059        5.13148
H         11.74141        8.25599        8.80216
H          8.84803        7.45696        8.43765
H          9.71071        7.09825        5.98723
H         11.29928        7.66198        6.60150
H         10.04260        9.82604        7.40364
H          8.63958        9.24992        6.42819
N         11.34492        5.37921        8.92311
C         11.59349        3.99721        9.24417
H         12.58353        3.91075        9.74448
H         10.81739        3.63958        9.95420
H         11.59162        3.38257        8.32377
H         12.07750        6.04569        9.15857
Ca        12.89790       10.89946        3.51183
O         11.79104       10.92635        0.41240
H         11.30212       11.76229        0.20996
H         11.57014       10.32166       -0.33958
O         10.58488        8.81413        1.83607
H         10.29118        8.21039        1.11223
H         10.79492        8.19875        2.57402

Ca 1.0



