%chk=holoCaM-CaMKII.loop1.water2.frame485.chk
%nprocshared=20
%mem=10GB
%nosave
#b3lyp/svp scf=(tight,noincore,xqc) Test 
#IOP(5/87=12) Density=Current Pop=(MK,readradii) iop(6/33=2) iop(6/42=6)

holoCaM-CaMKII.loop1.water2.frame485 

   0  1 
C         74.93099       96.20361       84.29351
C         74.48020       97.61167       84.54427
O         73.60017       98.08595       83.84297
H         75.74180       95.90804       84.99257
H         74.07667       95.50828       84.42137
H         75.32031       96.12079       83.25715
N         75.03111       98.34254       85.54809
C         74.67107       99.72958       85.80338
C         75.26233      100.61302       84.70929
O         76.45871      100.52264       84.46902
C         75.20262      100.13975       87.18524
C         74.67875      101.45914       87.66205
O         75.08218      101.90601       88.85484
O         73.87265      102.10971       87.01697
H         75.72428       97.88737       86.16321
H         73.56092       99.80935       85.85535
H         76.31392      100.15682       87.17783
H         74.87081       99.38863       87.93569
N         74.48725      101.49331       84.01374
C         74.97365      102.28914       82.88217
C         75.10455      103.76996       83.20705
O         75.64222      104.49410       82.38062
C         74.03835      102.06048       81.66183
C         73.90026      100.56720       81.30553
C         75.20393       99.98034       80.74033
C         75.21332       98.45285       80.82446
N         76.47538       97.91206       80.32401
H         73.50226      101.58089       84.28474
H         76.00913      101.98601       82.63473
H         74.38351      102.63119       80.77253
H         73.02800      102.43782       81.93614
H         73.08809      100.41158       80.56148
H         73.59056      100.03067       82.22332
H         76.07495      100.31202       81.33155
H         75.34018      100.33451       79.69475
H         74.35816       98.01305       80.26764
H         75.12052       98.17419       81.89206
H         77.28212       98.34933       80.82816
H         76.49751       96.88151       80.49768
H         76.55851       98.09472       79.29865
N         74.67290      104.28749       84.39072
C         74.88204      105.67444       84.80667
C         75.59985      105.76830       86.15841
O         75.83121      106.88119       86.61070
C         73.54834      106.45421       84.78111
C         72.44018      105.89037       85.62582
O         71.33900      106.41479       85.59493
O         72.62286      104.78076       86.36030
H         74.17188      103.66656       85.03178
H         75.53763      106.19904       84.07621
H         73.18734      106.45628       83.72843
H         73.73218      107.51097       85.07338
N         76.04669      104.66238       86.82919
C         76.86172      104.73175       88.03558
C         76.15231      105.17206       89.30667
O         76.83193      105.26992       90.31870
H         75.91183      103.72740       86.42286
H         77.72858      105.39776       87.83851
H         77.26542      103.71635       88.24472
N         74.81140      105.41748       89.36987
C         74.12231      105.79993       90.61295
C         74.07188      104.68814       91.68423
O         73.47523      104.91313       92.72867
C         72.68777      106.28197       90.28931
C         71.78796      105.22286       89.71556
O         70.63583      105.50557       89.42956
O         72.23063      103.96611       89.51943
H         74.26210      105.35662       88.50118
H         74.64732      106.68043       91.04464
H         72.74932      107.12143       89.56271
H         72.21605      106.67235       91.21736
N         74.65855      103.47215       91.49906
C         74.59347      102.35487       92.42736
C         73.19888      101.77533       92.52242
O         72.71913      101.58788       93.62439
H         75.20321      103.30832       90.65476
H         74.98980      102.64803       93.42470
H         75.24347      101.54307       92.03368
N         72.52860      101.42362       91.38481
C         71.18339      100.82760       91.30279
C         70.86717      100.45784       89.84121
O         71.27511      101.16346       88.93194
C         70.02439      101.72523       91.84435
C         69.82929      101.77875       93.36850
O         70.09106      103.02232       91.31912
H         73.03950      101.57484       90.50423
H         71.17646       99.87544       91.87717
H         69.07862      101.25489       91.49287
H         70.84830      103.48041       91.76972
H         70.60519      102.36112       93.89026
H         68.87380      102.29931       93.59123
H         69.76816      100.75121       93.78693
N         70.14581       99.32932       89.56127
C         69.88806       98.82272       88.20733
C         68.38126       98.74694       87.95389
O         67.64740       98.35323       88.84703
C         70.55838       97.42338       88.05887
C         72.08510       97.53651       88.32936
C         70.30010       96.83339       86.65509
C         72.80518       96.18920       88.39120
H         69.80022       98.76451       90.35121
H         70.34304       99.48334       87.43766
H         70.11149       96.74277       88.81766
H         72.25556       98.01406       89.31699
H         72.55964       98.17603       87.55397
H         69.21416       96.71991       86.46500
H         70.73464       97.48904       85.86984
H         70.73323       95.81935       86.55497
H         72.76045       95.64974       87.42526
H         73.87606       96.35922       88.63148
H         72.36075       95.55891       89.19107
N         67.86667       99.06102       86.72227
C         66.43579       99.04099       86.40405
C         66.10447       97.96220       85.37399
O         66.99292       97.27250       84.89954
C         65.98483      100.43322       85.87232
C         66.33029      101.57311       86.83539
O         66.50784      100.68771       84.59100
H         68.51686       99.31991       85.97285
H         65.84851       98.81380       87.31910
H         64.87973      100.44027       85.77084
H         67.42678      101.04293       84.68856
H         65.87124      101.39617       87.82947
H         67.43105      101.64678       86.94468
H         65.95655      102.53622       86.42678
N         64.80829       97.79175       84.97379
C         64.37827       96.85535       83.93303
C         65.06146       97.16777       82.61760
O         65.53983       96.25418       81.95980
C         62.84009       96.92164       83.71740
C         62.06045       96.44074       84.94364
O         62.44409       98.23185       83.39315
H         64.09282       98.38622       85.41245
H         64.62824       95.81140       84.22749
H         62.59414       96.22924       82.87529
H         61.65270       98.16301       82.79762
H         60.97168       96.47129       84.72551
H         62.33994       95.39371       85.18555
H         62.25657       97.08150       85.82720
N         65.11327       98.44788       82.16494
C         65.71442       98.84108       80.89823
C         67.20245       98.52923       80.88294
O         67.65407       97.85497       79.96790
C         65.44009      100.34036       80.61509
C         63.93094      100.70784       80.60262
C         63.10697       99.87433       79.60561
C         61.62081      100.25099       79.63421
N         60.85985       99.41107       78.70785
H         64.69948       99.17804       82.76186
H         65.24768       98.26502       80.07255
H         65.87520      100.59956       79.62536
H         65.94139      100.96864       81.38444
H         63.83590      101.78582       80.34834
H         63.49454      100.57651       81.61436
H         63.16636       98.80025       79.87480
H         63.51124      100.01904       78.58062
H         61.49670      101.32007       79.35494
H         61.22194      100.10615       80.66378
H         61.21075       99.54249       77.73141
H         60.94877       98.40409       78.97889
H         59.85054       99.68021       78.74624
N         68.01991       98.95802       81.88785
C         69.45822       98.67099       81.93220
C         69.75663       97.17342       82.02844
O         70.91316       96.80476       81.87605
C         70.12244       99.39029       83.13032
C         69.98208      100.92118       83.04342
C         70.48462      101.60422       84.28169
O         71.32749      102.48000       84.19977
O         69.95753      101.30622       85.48294
H         67.59099       99.50337       82.64564
H         69.91189       99.05293       80.99067
H         71.20460       99.14056       83.17968
H         69.64295       99.01307       84.05652
H         68.92206      101.21166       82.93397
H         70.52977      101.29154       82.14986
N         68.77908       96.25767       82.28654
C         68.99304       94.82652       82.33941
H         68.34019       94.33561       81.58556
H         70.04456       94.54485       82.12758
H         68.71423       94.44961       83.34564
H         67.82550       96.57590       82.46936
Ca        70.87004      103.60718       87.11728
O         68.62030      104.24458       85.46674
H         67.85347      104.86852       85.43494
H         69.32897      104.69182       84.93911
O         68.33524      102.93897       88.84668
H         69.30379      103.00867       89.02066
H         68.06107      103.85961       88.61035

Ca 1.0



