%chk=holoCaM.loop1.water2.frame167.chk
%nprocshared=20
%mem=10GB
%nosave
#b3lyp/svp scf=(tight,noincore,xqc) Test 
#IOP(5/87=12) Density=Current Pop=(MK,readradii) iop(6/33=2) iop(6/42=6)

holoCaM.loop1.water2.frame167 

   0  1 
C         13.20745       71.75073       -6.38671
C         14.64435       71.33521       -6.36363
O         15.06681       70.64425       -7.28064
H         12.56173       70.84933       -6.38596
H         12.95436       72.38205       -5.51009
H         13.01729       72.33727       -7.31118
N         15.47669       71.75346       -5.36805
C         16.89648       71.44650       -5.39238
C         17.11373       69.94438       -5.15678
O         16.84971       69.46399       -4.06363
C         17.65037       72.32865       -4.36631
C         19.12642       72.36451       -4.62186
O         19.63020       71.74503       -5.70011
O         19.85903       72.99282       -3.88185
H         15.10360       72.37166       -4.63065
H         17.25442       71.75195       -6.40250
H         17.43360       71.97803       -3.33305
H         17.30392       73.38175       -4.45450
N         17.52109       69.13746       -6.17840
C         17.62846       67.67872       -6.10462
C         18.65585       67.17470       -5.09109
O         18.36832       66.21009       -4.39765
C         17.88891       67.06406       -7.51429
C         19.34564       67.11821       -8.01891
C         19.46233       66.58623       -9.45541
C         20.91563       66.49619       -9.95882
N         21.71108       65.53862       -9.18526
H         17.64720       69.57582       -7.09471
H         16.62369       67.29755       -5.81429
H         17.20257       67.55047       -8.24359
H         17.61827       65.98618       -7.47888
H         19.95539       66.49331       -7.34005
H         19.74883       68.13651       -7.99860
H         18.89960       67.26833      -10.13132
H         19.00497       65.57649       -9.52253
H         21.40196       67.49577       -9.93778
H         20.88620       66.15682      -11.01794
H         21.21952       64.61660       -9.13271
H         22.63441       65.39945       -9.65481
H         21.89341       65.90091       -8.22375
N         19.89142       67.74860       -4.99820
C         20.99123       67.22852       -4.16705
C         21.34427       68.14380       -2.99000
O         22.22938       67.78457       -2.22571
C         22.23141       66.90602       -5.05882
C         22.78266       68.10600       -5.78815
O         23.67029       67.99141       -6.61846
O         22.23680       69.29913       -5.51701
H         20.04798       68.58880       -5.56918
H         20.68436       66.26752       -3.70155
H         21.91363       66.15453       -5.81195
H         23.03940       66.45238       -4.44598
N         20.65247       69.28979       -2.72832
C         20.83450       70.07990       -1.51851
C         22.15919       70.80106       -1.42058
O         22.84611       70.65010       -0.42017
H         19.88889       69.57847       -3.35600
H         20.67827       69.43323       -0.62638
H         20.05002       70.86683       -1.49661
N         22.53905       71.66744       -2.39720
C         23.67791       72.57637       -2.29169
C         23.22294       74.03200       -2.47216
O         24.06167       74.89678       -2.68623
C         24.79734       72.15717       -3.26475
C         24.35577       72.04720       -4.68578
O         24.48936       70.99499       -5.28890
O         23.82386       73.10800       -5.30748
H         21.96104       71.72470       -3.24807
H         24.15219       72.52467       -1.28660
H         25.19157       71.16854       -2.94160
H         25.63312       72.88692       -3.20293
N         21.91657       74.38929       -2.28502
C         21.43103       75.75974       -2.31459
C         21.31451       76.40326       -3.68512
O         20.89340       77.55082       -3.70645
H         21.23991       73.67501       -1.98493
H         22.06803       76.38715       -1.65315
H         20.40346       75.77239       -1.88836
N         21.63724       75.77420       -4.85851
C         21.49762       76.43825       -6.16249
C         20.59031       75.65611       -7.10901
O         20.26601       74.51152       -6.82995
C         22.88865       76.66741       -6.80111
C         23.77374       77.57500       -5.92175
O         23.51687       75.43820       -7.07785
H         22.00312       74.81388       -4.83358
H         21.02364       77.43440       -6.03205
H         22.76315       77.19711       -7.76945
H         24.16036       75.23481       -6.35178
H         23.95164       77.11499       -4.92524
H         24.75804       77.73062       -6.41229
H         23.28794       78.56200       -5.77616
N         20.12619       76.24882       -8.25467
C         19.29690       75.57208       -9.25236
C         19.99142       75.65179      -10.60846
O         20.12235       76.73382      -11.16291
C         17.85704       76.18869       -9.30323
C         17.10812       75.87840       -7.97802
C         17.05448       75.65887      -10.50993
C         15.67468       76.41974       -7.91801
H         20.36993       77.23546       -8.42883
H         19.18057       74.49762       -8.98904
H         17.94151       77.29057       -9.43309
H         17.67393       76.32311       -7.13265
H         17.06071       74.77695       -7.82393
H         16.06208       76.14439      -10.58633
H         17.55896       75.90957      -11.46104
H         16.91750       74.56506      -10.43830
H         15.66428       77.51810       -8.07578
H         15.02233       75.93078       -8.67132
H         15.23508       76.19277       -6.92435
N         20.44920       74.51321      -11.20085
C         21.02475       74.44735      -12.53801
C         19.92060       74.57765      -13.57779
O         18.75305       74.64894      -13.22105
C         21.77686       73.09422      -12.76816
C         22.91309       72.84932      -11.76638
O         20.89410       72.00204      -12.79096
H         20.37173       73.65030      -10.67408
H         21.77318       75.26247      -12.64847
H         22.26458       73.12339      -13.76411
H         20.67425       71.75544      -11.85868
H         23.42161       71.89113      -12.00963
H         23.65635       73.67087      -11.81384
H         22.51946       72.77481      -10.73378
N         20.22066       74.54955      -14.90171
C         19.20584       74.51951      -15.95142
C         18.31775       73.28972      -15.80114
O         17.10741       73.42313      -15.90151
C         19.85937       74.55395      -17.35258
C         20.58625       75.88875      -17.58270
O         20.75340       73.48022      -17.49961
H         21.21453       74.50476      -15.17014
H         18.55850       75.42344      -15.87843
H         19.04494       74.47066      -18.10953
H         20.99905       73.43927      -18.46041
H         21.01284       75.91778      -18.60654
H         19.87130       76.73347      -17.48049
H         21.41237       76.03536      -16.85663
N         18.85535       72.06420      -15.53609
C         18.05747       70.85192      -15.35630
C         17.09084       70.98364      -14.18446
O         15.89501       70.81383      -14.37943
C         19.00228       69.63788      -15.16917
C         18.29604       68.26906      -15.06686
C         17.31851       67.95621      -16.21612
C         17.95636       68.02948      -17.61385
N         16.95798       67.76685      -18.64956
H         19.88141       71.99302      -15.45893
H         17.47781       70.69147      -16.28944
H         19.62983       69.77571      -14.26125
H         19.69786       69.60563      -16.03467
H         17.72651       68.22068      -14.11355
H         19.08096       67.48165      -15.02735
H         16.46580       68.66454      -16.16752
H         16.90768       66.93541      -16.05656
H         18.78286       67.28941      -17.69120
H         18.37697       69.04169      -17.79183
H         16.18626       68.47119      -18.58689
H         17.40826       67.84899      -19.58954
H         16.56614       66.80403      -18.53910
N         17.54596       71.30022      -12.93911
C         16.69119       71.44161      -11.75655
C         15.65330       72.55527      -11.90239
O         14.77325       72.63166      -11.05600
C         17.56391       71.74137      -10.50932
C         18.49956       70.57892      -10.12918
C         19.51159       71.00232       -9.09522
O         20.32829       71.86402       -9.34024
O         19.57668       70.40542       -7.90748
H         18.55499       71.44353      -12.83609
H         16.14082       70.48590      -11.60610
H         16.92797       71.96700       -9.62360
H         18.16555       72.64539      -10.74221
H         19.06711       70.21643      -11.00811
H         17.88331       69.73438       -9.75054
N         15.69573       73.46140      -12.92113
C         14.72162       74.51708      -13.10925
H         13.91777       74.49719      -12.34489
H         15.23299       75.50123      -13.06266
H         14.25569       74.40778      -14.11164
H         16.46181       73.42874      -13.59732
Ca        21.78098       71.36971       -6.18562
O         22.67745       70.15940       -9.14692
H         23.36253       70.04633       -9.85217
H         22.59420       69.26572       -8.73140
O         23.93239       72.82140       -8.55382
H         24.54578       72.44850       -9.23515
H         24.49746       72.91768       -7.74914

Ca 1.0



