%chk=holoCaM.loop4.water3.frame394.chk
%nprocshared=20
%mem=10GB
%nosave
#b3lyp/svp scf=(tight,noincore,xqc) Test 
#IOP(5/87=12) Density=Current Pop=(MK,readradii) iop(6/33=2) iop(6/42=6)

holoCaM.loop4.water3.frame394 

   -3  1 
C         85.33329       43.99860       89.24227
C         83.97179       43.37432       89.25099
O         83.79696       42.32970       88.64015
H         86.04145       43.38481       88.64452
H         85.27832       45.01487       88.80057
H         85.71442       44.06684       90.28274
N         82.94762       43.97156       89.92381
C         81.60538       43.40437       89.99154
C         80.65044       44.36398       90.67223
O         80.87830       44.70488       91.82688
C         81.61188       42.06928       90.76847
C         80.23110       41.48977       90.84363
O         79.65565       41.27086       92.04124
O         79.61644       41.24382       89.81890
H         83.13529       44.87363       90.39022
H         81.24897       43.22582       88.95498
H         81.99880       42.23533       91.79792
H         82.26898       41.32590       90.27728
N         79.54475       44.82302       90.01433
C         78.58356       45.73730       90.61357
C         77.15544       45.15884       90.65878
O         76.31083       45.79679       91.26591
C         78.70134       47.11925       89.88637
C         78.09960       48.31325       90.66822
C         78.11690       47.08150       88.46119
C         78.82200       48.58882       91.99290
H         79.40390       44.53700       89.03935
H         78.87612       45.88536       91.66830
H         79.78749       47.34715       89.78421
H         77.01378       48.17667       90.84550
H         78.22820       49.23057       90.05155
H         78.59808       46.29625       87.84608
H         77.02201       46.89931       88.48603
H         78.29798       48.05188       87.94925
H         79.90772       48.74797       91.81171
H         78.40917       49.50788       92.45753
H         78.69281       47.76394       92.71991
N         76.80541       43.97471       90.04840
C         75.44085       43.41996       90.09349
C         75.35890       41.96953       90.60238
O         74.24467       41.48086       90.74634
C         74.75145       43.56123       88.71566
C         75.39393       42.81498       87.57929
O         76.52221       42.10525       87.75474
O         74.88130       42.85958       86.47273
H         77.50994       43.47247       89.49801
H         74.82271       44.01968       90.79500
H         74.71955       44.63803       88.44204
H         73.70109       43.20582       88.80666
N         76.45857       41.22127       90.90877
C         76.40222       39.86458       91.46073
C         75.84728       38.77344       90.54278
O         75.77870       37.63590       90.98519
H         77.38599       41.64748       90.81289
H         75.79999       39.88871       92.39399
H         77.43374       39.55474       91.73537
N         75.44038       39.02603       89.27062
C         74.86113       38.02817       88.36094
C         75.74050       36.79654       88.05774
O         75.16095       35.74680       87.81472
C         74.44768       38.68856       87.01346
C         75.61242       39.35029       86.32037
O         76.74862       39.52905       87.01706
O         75.52708       39.71853       85.16098
H         75.50439       39.99451       88.93910
H         73.92832       37.64297       88.82955
H         73.65574       39.45143       87.17021
H         74.03172       37.89305       86.35627
N         77.10229       36.85117       87.94449
C         77.93588       35.71417       87.55675
C         78.69576       35.92972       86.24709
O         79.54362       35.10401       85.94075
H         77.59200       37.72724       88.14896
H         77.34686       34.77758       87.45071
H         78.67252       35.54915       88.37271
N         78.43889       36.98291       85.41326
C         79.16135       37.25805       84.16538
C         79.77899       38.67215       84.26597
O         80.50460       38.78690       85.44823
C         78.17127       37.19080       82.98511
C         77.62542       35.77545       82.75026
C         76.71379       35.70799       81.54451
N         76.21765       34.51713       81.14097
O         76.42872       36.71933       80.91772
H         77.68451       37.63255       85.66173
H         79.98454       36.52784       84.00267
H         78.68004       37.48068       82.04693
H         77.33239       37.90091       83.16525
H         77.07232       35.41820       83.64541
H         78.48682       35.09679       82.56814
H         76.45554       33.65077       81.64495
H         75.60596       34.46034       80.31300
N         80.61939       39.11748       83.14499
C         80.94705       40.56267       83.26240
C         80.10670       41.47401       82.35734
O         79.37987       40.99987       81.49619
C         82.47284       40.76602       83.08347
C         83.23677       40.10303       84.24248
C         82.97206       40.20290       81.74494
H         80.25777       38.87576       82.19922
H         80.70415       40.91933       84.28628
H         82.70364       41.85307       83.12350
H         83.04972       39.00805       84.27759
H         84.32885       40.27172       84.13798
H         82.91876       40.54873       85.20788
H         82.79643       39.10622       81.68734
H         82.45294       40.69420       80.89706
H         84.06371       40.37961       81.64144
N         80.10994       42.82179       82.59358
C         79.26940       43.80320       81.90383
C         80.10868       44.97531       81.39983
O         81.29789       45.03208       81.66342
C         78.20821       44.28234       82.92934
C         77.21308       45.32087       82.47652
N         76.36921       45.07669       81.44928
O         77.14573       46.38720       83.07010
H         80.68044       43.16635       83.37747
H         78.75498       43.33371       81.03760
H         78.73580       44.66784       83.82973
H         77.61079       43.40470       83.22002
H         76.39895       44.18213       80.94108
H         75.68082       45.78793       81.16552
N         79.53166       45.95261       80.64683
C         80.21016       47.17277       80.20147
C         80.46757       48.19114       81.32510
O         81.09218       49.20113       81.02927
C         79.45124       47.80568       79.00017
C         77.95289       47.91893       79.19146
C         77.09079       47.18848       78.35254
C         77.40220       48.70915       80.20619
C         75.70854       47.23712       78.53902
C         76.01677       48.75544       80.39856
C         75.16566       48.01683       79.56852
O         73.83361       48.05617       79.77211
H         78.56464       45.79155       80.34578
H         81.21142       46.89808       79.79984
H         79.63358       47.13616       78.13109
H         79.89043       48.79156       78.73449
H         77.48800       46.56746       77.55918
H         78.04932       49.27615       80.84894
H         75.06348       46.65971       77.88877
H         75.60524       49.35843       81.19799
H         73.21671       47.54408       79.22927
N         80.08746       47.99334       82.62536
C         80.46264       48.89268       83.72315
C         81.48428       48.22536       84.64071
O         81.84621       48.81762       85.64748
C         79.22669       49.30057       84.56401
C         78.13929       50.05515       83.79141
C         78.65357       51.32767       83.17502
O         78.58651       51.49944       81.96887
O         79.18209       52.29127       83.95334
H         79.58430       47.13316       82.87889
H         80.94622       49.81798       83.34116
H         79.56012       49.95898       85.39776
H         78.77118       48.39187       85.01607
H         77.32143       50.31677       84.49696
H         77.71021       49.38536       83.02362
N         82.00704       47.00071       84.34506
C         82.93264       46.27237       85.19613
C         84.24772       46.12417       84.45463
O         85.26086       46.60857       84.93991
C         82.32029       44.89749       85.53877
C         80.93021       45.02889       86.19653
C         80.23616       43.70524       86.37022
O         78.97172       43.67387       86.82838
O         80.78527       42.66010       86.06717
H         81.73657       46.53572       83.47531
H         83.11573       46.82037       86.14720
H         83.00455       44.32509       86.20263
H         82.19716       44.32633       84.59709
H         80.27068       45.63938       85.54526
H         81.02222       45.53747       87.18030
N         84.30003       45.49525       83.24621
C         85.51353       45.39608       82.46788
H         86.29079       44.84602       83.03670
H         85.30803       44.85141       81.52056
H         85.87975       46.41341       82.21267
H         83.44789       45.08383       82.84585
Ca        78.87950       39.85282       86.52244
O         81.68965       40.23081       87.47190
H         82.20578       39.61979       88.05297
H         81.58734       41.05837       87.99994
O         77.76487       41.71463       84.90781
H         77.50393       41.14138       84.14444
H         76.96686       42.26850       85.09086
O         79.79232       38.56270       89.18309
H         79.03572       38.72207       89.80200
H         80.18739       37.70938       89.48779

Ca 1.0



