%chk=holoCaM-CaMKII.loop4.water2.frame22.chk
%nprocshared=20
%mem=10GB
%nosave
#b3lyp/svp scf=(tight,noincore,xqc) Test 
#IOP(5/87=12) Density=Current Pop=(MK,readradii) iop(6/33=2) iop(6/42=6)

holoCaM-CaMKII.loop4.water2.frame22 

   -3  1 
C         21.03832       48.03916       34.95146
C         20.04804       48.85315       35.73390
O         20.41767       49.90005       36.24602
H         21.90106       47.78283       35.60125
H         20.58588       47.09445       34.58186
H         21.40008       48.62240       34.07869
N         18.75352       48.44508       35.84798
C         17.75680       49.19228       36.60435
C         18.01331       49.01757       38.09253
O         17.94760       47.89339       38.57166
C         16.34494       48.70349       36.22385
C         15.26748       49.44682       36.95824
O         15.15062       50.78009       36.82435
O         14.48638       48.84105       37.67331
H         18.46387       47.58682       35.35295
H         17.81563       50.26451       36.31049
H         16.25427       47.61450       36.43136
H         16.19458       48.86034       35.13259
N         18.32790       50.08797       38.87810
C         18.61348       49.97902       40.31018
C         17.67721       50.82034       41.17814
O         17.79713       50.70698       42.39089
C         20.10327       50.32729       40.60734
C         20.48289       51.73191       40.07142
C         21.02420       49.23051       40.03988
C         21.84073       52.22773       40.56644
H         18.39641       51.01373       38.43196
H         18.44643       48.93403       40.65573
H         20.23641       50.31583       41.71267
H         19.72781       52.47232       40.41127
H         20.48938       51.72379       38.96060
H         20.74345       48.24303       40.46652
H         20.94491       49.17301       38.93457
H         22.08266       49.40724       40.31616
H         22.66680       51.56548       40.24057
H         22.03188       53.23954       40.15053
H         21.83661       52.29660       41.67501
N         16.71784       51.65243       40.66817
C         15.77820       52.39013       41.51895
C         14.33778       51.93308       41.29469
O         13.45022       52.48887       41.92706
C         15.96881       53.91628       41.36585
C         15.53381       54.48657       40.05246
O         15.77321       55.65567       39.79562
O         14.93744       53.71702       39.12978
H         16.62393       51.75268       39.64954
H         15.99727       52.19015       42.58978
H         17.05083       54.13517       41.51379
H         15.40474       54.45071       42.15975
N         14.03416       50.87699       40.47671
C         12.71166       50.27377       40.44260
C         11.71916       50.90302       39.48662
O         10.57716       50.46634       39.51405
H         14.79200       50.35381       40.01670
H         12.29679       50.26140       41.47425
H         12.81293       49.21039       40.13583
N         12.04815       51.87856       38.58913
C         11.06711       52.41603       37.64093
C         10.92714       51.56935       36.37527
O         10.09116       51.90090       35.54584
C         11.37074       53.89056       37.29680
C         12.69399       54.09830       36.61484
O         13.59212       54.95223       37.13818
O         12.94685       53.52816       35.56749
H         13.02368       52.20037       38.53375
H         10.06800       52.42710       38.13061
H         11.34471       54.49414       38.22980
H         10.57115       54.27377       36.62617
N         11.70241       50.47291       36.14877
C         11.61511       49.66198       34.94493
C         12.00039       50.44503       33.71047
O         11.27239       50.41033       32.73082
H         12.39659       50.18679       36.85068
H         10.59996       49.22059       34.84144
H         12.34139       48.82471       35.03940
N         13.18471       51.11491       33.68945
C         13.76602       51.80717       32.53133
C         15.22906       52.16061       32.81001
O         15.70224       52.00161       33.92913
C         13.04197       53.12727       32.12021
C         11.61220       53.01007       31.57786
C         11.16825       54.31980       30.96547
N         10.09578       54.99010       31.44548
O         11.78441       54.77689       30.01310
H         13.73910       51.03580       34.55326
H         13.77412       51.09611       31.67555
H         13.63394       53.57237       31.29379
H         13.05407       53.85129       32.96051
H         10.92259       52.73269       32.39891
H         11.57688       52.23838       30.77843
H          9.55603       54.62723       32.24363
H          9.80441       55.88037       31.01404
N         16.02061       52.63319       31.80721
C         17.42609       52.96024       31.99324
C         17.64677       54.41296       31.62074
O         17.32137       54.78243       30.49951
C         18.31140       52.01823       31.13012
C         19.80218       52.23638       31.43917
C         17.96768       50.54019       31.38144
H         15.62831       52.73099       30.85765
H         17.72645       52.80313       33.04729
H         18.13037       52.22676       30.05217
H         20.43157       51.57518       30.80741
H         20.10083       53.28233       31.23565
H         20.01254       52.00301       32.50538
H         18.61229       49.88630       30.75610
H         18.11365       50.27518       32.45071
H         16.91424       50.32931       31.10047
N         18.25488       55.27855       32.48541
C         18.61853       56.64075       32.09779
C         20.09762       56.68361       31.77480
O         20.75594       55.66459       31.87990
C         18.18687       57.71444       33.13519
C         19.04892       57.85169       34.37419
N         19.13494       56.87964       35.30742
O         19.66219       58.89493       34.54822
H         18.58787       54.90912       33.38474
H         18.08697       56.90648       31.15829
H         17.12651       57.57473       33.41857
H         18.23557       58.69619       32.61437
H         18.60720       56.00507       35.22148
H         19.71831       57.02024       36.14587
N         20.68981       57.82638       31.34975
C         22.10104       57.91286       30.98029
C         23.01856       57.46526       32.11269
O         23.91457       56.66813       31.87371
C         22.41789       59.36633       30.58213
C         23.85627       59.55620       30.17546
C         24.38590       58.87683       29.06519
C         24.68040       60.42327       30.90949
C         25.72122       59.06441       28.69738
C         26.01337       60.60959       30.54002
C         26.53866       59.93104       29.43119
O         27.82318       60.10553       29.06264
H         20.10626       58.67387       31.27888
H         22.28535       57.25997       30.09802
H         22.17299       60.02728       31.44326
H         21.76659       59.66659       29.73242
H         23.76729       58.20482       28.48337
H         24.29193       60.95494       31.76950
H         26.11978       58.53696       27.83994
H         26.63497       61.28226       31.11666
H         28.41739       60.70050       29.54188
N         22.83305       57.93786       33.37299
C         23.68138       57.60861       34.52063
C         23.81789       56.10479       34.69990
O         24.93542       55.60898       34.73736
C         23.09460       58.24688       35.80062
C         23.12188       59.78637       35.74227
C         22.43551       60.38743       36.93260
O         23.11691       61.18460       37.77632
O         21.24720       60.18060       37.12412
H         22.02037       58.55195       33.51603
H         24.70197       58.02216       34.35990
H         23.68423       57.92520       36.68771
H         22.05024       57.88816       35.93263
H         22.60608       60.17229       34.84042
H         24.17982       60.12522       35.70194
N         22.71626       55.31622       34.78191
C         22.76303       53.85895       34.91215
C         23.52926       53.22839       33.76730
O         24.42749       52.43704       34.01916
C         21.33260       53.30265       34.94819
C         20.64421       53.71611       36.25039
C         19.20505       53.34198       36.29156
O         18.52350       53.63545       37.39706
O         18.63459       52.82526       35.34569
H         21.79864       55.78236       34.71121
H         23.26576       53.57043       35.86383
H         21.34372       52.19070       34.91368
H         20.77192       53.68068       34.06493
H         20.69094       54.81253       36.40334
H         21.16654       53.23114       37.10244
N         23.24425       53.55114       32.48065
C         23.95127       52.98349       31.35752
H         25.04027       53.17806       31.45607
H         23.76451       51.89067       31.31070
H         23.59166       53.45097       30.41589
H         22.51967       54.24647       32.29169
Ca        16.34859       53.28442       37.50619
O         16.44595       56.40137       36.82510
H         16.73692       57.34728       36.83177
H         17.19134       55.91477       37.25724
O         15.07195       55.36775       34.18017
H         15.35905       56.24806       33.83718
H         14.12309       55.51137       34.41769

Ca 1.0



