%chk=holoCaM.loop1.water2.frame135.chk
%nprocshared=20
%mem=10GB
%nosave
#b3lyp/svp scf=(tight,noincore,xqc) Test 
#IOP(5/87=12) Density=Current Pop=(MK,readradii) iop(6/33=2) iop(6/42=6)

holoCaM.loop1.water2.frame135 

   0  1 
C         -1.11971       93.87551        8.87458
C         -0.90963       92.38743        8.86592
O         -1.68762       91.67569        8.24836
H         -2.11278       94.11011        9.30995
H         -0.34508       94.39148        9.48316
H         -1.06543       94.26909        7.83880
N          0.14456       91.84931        9.53276
C          0.43474       90.42130        9.58713
C         -0.68158       89.67525       10.31257
O         -1.02145       90.05271       11.42502
C          1.80488       90.23828       10.27080
C          2.26334       88.81865       10.33947
O          2.36996       88.14105        9.33107
O          2.62382       88.31095       11.52544
H          0.78663       92.49786       10.01644
H          0.54171       90.03288        8.55151
H          1.78115       90.66248       11.29884
H          2.56372       90.79909        9.68292
N         -1.27360       88.58277        9.74209
C         -2.35882       87.82179       10.35961
C         -1.87971       86.47106       10.89687
O         -2.70831       85.74371       11.42828
C         -3.48403       87.56513        9.32224
C         -4.15179       88.83113        8.76246
C         -5.27357       88.43734        7.77814
C         -5.99444       89.63118        7.12871
N         -6.69242       90.46548        8.10827
H         -0.91382       88.24340        8.84069
H         -2.78138       88.37589       11.22587
H         -4.27996       86.95570        9.80536
H         -3.06586       86.97411        8.47547
H         -3.39930       89.45483        8.23567
H         -4.57648       89.41063        9.60809
H         -6.02699       87.80856        8.30255
H         -4.83182       87.82912        6.95790
H         -6.74338       89.22626        6.41050
H         -5.27034       90.24834        6.55298
H         -7.35483       89.88527        8.67288
H         -6.00925       90.94456        8.73614
H         -7.23870       91.19859        7.60060
N         -0.58231       86.05516       10.79483
C         -0.12187       84.72834       11.21394
C          1.01433       84.77956       12.22520
O          1.51717       83.72010       12.57708
C          0.42284       84.00832        9.97600
C         -0.61028       83.80489        8.92054
O         -0.50578       84.46043        7.75564
O         -1.54588       83.04386        9.10590
H          0.11208       86.67270       10.34987
H         -0.94660       84.12720       11.65533
H          0.84682       83.01252       10.22976
H          1.23463       84.64151        9.57120
N          1.51201       85.94896       12.71177
C          2.69346       85.99148       13.56126
C          3.98416       85.59626       12.84274
O          5.00830       85.55239       13.50920
H          1.04208       86.83488       12.48667
H          2.52790       85.33158       14.43962
H          2.83685       87.02736       13.93801
N          4.03751       85.32578       11.50039
C          5.27797       84.98996       10.79709
C          6.11947       86.21735       10.43006
O          7.15344       86.03799        9.80059
C          5.01122       84.05298        9.58647
C          4.00241       84.53256        8.57826
O          4.13693       85.71863        7.97076
O          3.06670       83.81290        8.27170
H          3.18040       85.39947       10.93809
H          5.92269       84.37503       11.46435
H          4.65552       83.07279        9.97448
H          5.97241       83.86446        9.06145
N          5.79349       87.48005       10.83762
C          6.62644       88.64811       10.57761
C          6.64728       89.10867        9.13109
O          7.34019       90.08043        8.86065
H          4.96979       87.62603       11.42959
H          7.66406       88.43705       10.92079
H          6.24337       89.49980       11.18004
N          5.93803       88.48181        8.14893
C          5.96125       88.88369        6.74336
C          4.56072       89.15257        6.21218
O          3.58706       88.91606        6.91539
C          6.69005       87.81054        5.89981
C          8.19110       87.77129        6.22329
O          6.10477       86.54197        6.06557
H          5.37033       87.66797        8.39723
H          6.51483       89.84153        6.62783
H          6.61989       88.07700        4.82466
H          6.44175       86.15210        6.91533
H          8.64634       88.76219        6.01030
H          8.36671       87.52033        7.29084
H          8.69064       87.01000        5.58877
N          4.40268       89.72386        4.98028
C          3.11853       90.15544        4.43510
C          2.90078       89.54667        3.05207
O          3.64304       89.87561        2.13528
C          3.11769       91.71744        4.34801
C          3.40740       92.40304        5.71098
C          1.83120       92.28455        3.72436
C          2.35603       92.16383        6.79884
H          5.24840       89.94580        4.43172
H          2.28688       89.83572        5.10009
H          3.95371       92.01337        3.67407
H          3.48749       93.49969        5.54577
H          4.39349       92.06293        6.09346
H          1.69795       91.90541        2.69530
H          0.93790       92.01747        4.31980
H          1.89855       93.39084        3.65175
H          2.66114       92.69937        7.72225
H          1.36328       92.55111        6.49417
H          2.26701       91.08911        7.04225
N          1.88420       88.66610        2.82198
C          1.54855       88.16309        1.48510
C          0.85428       89.24993        0.66405
O          0.58633       90.32247        1.18205
C          0.62231       86.91552        1.57758
C          1.34193       85.73521        2.23692
O         -0.54202       87.23539        2.29175
H          1.32455       88.35164        3.62725
H          2.47983       87.84900        0.96290
H          0.34021       86.59002        0.55214
H         -1.13571       86.44006        2.26943
H          1.63171       85.98412        3.27420
H          0.67133       84.84997        2.25944
H          2.24870       85.46653        1.65470
N          0.48909       89.01184       -0.62826
C         -0.30528       89.94584       -1.43054
C         -1.63819       90.22193       -0.75725
O         -2.04146       91.37324       -0.67880
C         -0.56595       89.38726       -2.85433
C          0.72573       89.31939       -3.67799
O         -1.16100       88.11666       -2.77762
H          0.74760       88.10498       -1.04353
H          0.23419       90.91282       -1.54751
H         -1.25927       90.08992       -3.37440
H         -1.41107       87.85909       -3.70241
H          0.49647       88.96009       -4.70402
H          1.17468       90.33187       -3.76152
H          1.46237       88.63003       -3.21825
N         -2.37375       89.19636       -0.25238
C         -3.67176       89.36450        0.39165
C         -3.55374       90.24665        1.63048
O         -4.28623       91.21920        1.74389
C         -4.28568       87.98333        0.74452
C         -4.40440       87.00881       -0.45851
C         -5.19311       87.58819       -1.64856
C         -5.34846       86.60253       -2.82212
N         -4.07149       86.28551       -3.46685
H         -1.97513       88.25082       -0.32710
H         -4.37138       89.85841       -0.31522
H         -5.30009       88.15002        1.16875
H         -3.66986       87.48204        1.52387
H         -4.90843       86.08332       -0.10430
H         -3.39415       86.71180       -0.79630
H         -4.69587       88.50025       -2.04024
H         -6.20764       87.86417       -1.29013
H         -6.00979       87.07878       -3.57998
H         -5.84156       85.66885       -2.47523
H         -3.42910       85.78478       -2.81373
H         -4.24968       85.66243       -4.28736
H         -3.62260       87.16320       -3.81317
N         -2.61581       89.97796        2.58155
C         -2.41375       90.77292        3.80034
C         -2.05104       92.21902        3.50691
O         -2.18878       93.04109        4.40244
C         -1.28676       90.13782        4.64840
C         -1.73070       88.77334        5.17675
C         -0.59880       87.90715        5.62624
O         -0.45846       86.81319        5.10380
O          0.19478       88.22677        6.65920
H         -2.00902       89.16649        2.41332
H         -3.36574       90.77612        4.37867
H         -0.99711       90.77231        5.51617
H         -0.39931       90.03216        3.98700
H         -2.25350       88.20295        4.38310
H         -2.45622       88.91830        6.00447
N         -1.56172       92.60143        2.29570
C         -1.23455       93.96855        1.95269
H         -0.15388       94.03797        1.71092
H         -1.82272       94.26575        1.05885
H         -1.46437       94.67896        2.77358
H         -1.39209       91.89285        1.57653
Ca         0.84477       86.25854        7.50925
O          0.81455       84.00352        5.14883
H         -0.17487       84.03016        5.13095
H          1.06030       83.44079        4.37292
O          3.27295       85.98211        5.22781
H          3.42408       85.06736        4.88006
H          3.87028       86.55472        4.68472

Ca 1.0



