%chk=holoCaM.loop1.water1.frame397.chk
%nprocshared=20
%mem=10GB
%nosave
#b3lyp/svp scf=(tight,noincore,xqc) Test 
#IOP(5/87=12) Density=Current Pop=(MK,readradii) iop(6/33=2) iop(6/42=6)

holoCaM.loop1.water1.frame397 

   0  1 
C         94.93039       69.41852      104.22257
C         96.40865       69.63191      104.28422
O         97.04462       69.13230      105.20054
H         94.58848       68.80408      105.08295
H         94.41687       70.40109      104.25219
H         94.67179       68.89158      103.28028
N         97.03536       70.35318      103.31453
C         98.47430       70.55196      103.31330
C         98.89961       71.42676      104.49176
O         98.40943       72.54335      104.58760
C         98.94932       71.19479      101.97638
C        100.44005       71.05007      101.82230
O        101.01211       71.42315      100.81356
O        101.04534       70.25253      102.71174
H         96.47395       70.72155      102.53117
H         98.92586       69.53469      103.37871
H         98.62181       72.25256      101.89910
H         98.50613       70.62657      101.12771
N         99.81976       70.99598      105.41010
C        100.24614       71.78684      106.56274
C        101.73433       72.14172      106.46000
O        102.45609       71.96050      107.43153
C        100.02350       70.97420      107.86516
C         98.63046       70.36896      108.05635
C         98.63596       69.48638      109.31965
C         97.33915       68.69386      109.53096
N         96.19391       69.56011      109.80338
H        100.23604       70.06894      105.29572
H         99.66845       72.73552      106.60426
H        100.26902       71.61317      108.74289
H        100.73776       70.11919      107.84092
H         98.40357       69.71892      107.18945
H         97.87070       71.17510      108.12251
H         98.85136       70.10594      110.21764
H         99.45118       68.73489      109.21755
H         97.49011       68.01761      110.40226
H         97.13449       68.06039      108.63984
H         95.35818       68.96068      109.99156
H         96.38345       70.14782      110.64756
H         95.98671       70.16818      108.98022
N        102.26648       72.65950      105.31586
C        103.68569       73.01533      105.17747
C        103.93383       73.71047      103.84172
O        104.44604       74.82144      103.86379
C        104.65931       71.83465      105.46670
C        104.46184       70.59107      104.65881
O        104.68798       70.58996      103.46477
O        104.11890       69.44072      105.27101
H        101.63126       72.81301      104.51775
H        103.92926       73.76827      105.96162
H        104.56569       71.54191      106.53063
H        105.70851       72.18045      105.34799
N        103.50913       73.17797      102.65682
C        103.53905       73.91969      101.40110
C        104.21337       73.20453      100.25113
O        104.14817       73.73490       99.15027
H        103.03529       72.26421      102.65628
H        104.02240       74.91458      101.51604
H        102.48415       74.09774      101.10371
N        104.89755       72.03340      100.39766
C        105.56306       71.38761       99.26804
C        104.59075       70.84179       98.22481
O        105.03737       70.58236       97.11625
C        106.55579       70.29424       99.72638
C        105.95086       69.14770      100.49000
O        106.74344       68.14538      100.91134
O        104.76169       69.11690      100.74872
H        105.00649       71.63536      101.33575
H        106.18041       72.16951       98.77050
H        107.32158       70.76357      100.37977
H        107.07174       69.88270       98.83235
N        103.27038       70.61613       98.50054
C        102.31564       70.16050       97.49707
C        101.77943       68.76269       97.73672
O        101.01494       68.31390       96.89246
H        102.92172       70.77470       99.45285
H        102.78419       70.14373       96.48960
H        101.47141       70.88135       97.45174
N        102.14708       67.99134       98.80475
C        101.74512       66.59027       98.94336
C        100.97435       66.32697      100.22253
O        100.87148       67.19865      101.07539
C        103.00068       65.67060       98.93266
C        103.85122       65.82989       97.66642
O        103.78447       65.86365      100.08696
H        102.77212       68.38536       99.51736
H        101.08917       66.29517       98.09516
H        102.66592       64.61158       98.94792
H        104.28008       66.71494       99.98823
H        104.70786       65.12330       97.70668
H        103.24374       65.60406       96.76580
H        104.25289       66.86242       97.58537
N        100.43682       65.09044      100.42100
C         99.86077       64.62727      101.67295
C        100.65472       63.39724      102.10662
O        100.73231       62.42281      101.37079
C         98.33515       64.35076      101.52578
C         97.60141       65.69666      101.25597
C         97.78018       63.68056      102.79818
C         96.07951       65.58501      101.13505
H        100.48215       64.40741       99.64806
H         99.96219       65.40730      102.46182
H         98.16840       63.65005      100.67844
H         97.98530       66.13463      100.31025
H         97.81879       66.41383      102.08004
H         98.30593       62.72807      103.01404
H         97.88686       64.35649      103.66618
H         96.71144       63.41440      102.67828
H         95.62173       65.25399      102.09035
H         95.65574       66.58613      100.90687
H         95.80284       64.88162      100.32341
N        101.25793       63.39481      103.32204
C        102.05329       62.32270      103.90015
C        101.27510       61.74414      105.07885
O        100.08257       61.99803      105.16936
C        103.43640       62.89861      104.31882
C        104.18762       63.46763      103.10023
O        103.25381       63.87996      105.31190
H        101.12312       64.20983      103.91656
H        102.22552       61.49903      103.17295
H        104.06797       62.08624      104.73385
H        104.09571       64.39709      105.40414
H        104.32637       62.67819      102.33183
H        103.63529       64.31970      102.65127
H        105.19431       63.82410      103.40720
N        101.86046       60.93801      106.00793
C        101.12072       60.34085      107.11952
C        100.49297       61.40824      108.01423
O         99.28788       61.37430      108.21566
C        102.04578       59.41170      107.94327
C        101.26153       58.63807      109.00849
O        102.65427       58.48540      107.07913
H        102.86317       60.72423      105.91655
H        100.31332       59.70532      106.68978
H        102.82728       60.03730      108.43754
H        103.53806       58.25895      107.47144
H        101.95009       57.97553      109.57331
H        100.77209       59.32778      109.72690
H        100.48352       58.00878      108.52402
N        101.25877       62.37436      108.59931
C        100.72868       63.39204      109.51635
C         99.74980       64.37706      108.87451
O         99.22285       65.21490      109.59391
C        101.90184       64.13171      110.20071
C        102.73852       65.02457      109.25849
C        104.13286       65.32250      109.83690
C        104.12759       66.04677      111.19153
N        105.49258       66.17382      111.70506
H        102.27388       62.34109      108.42477
H        100.18693       62.85457      110.32649
H        102.55105       63.34051      110.63563
H        101.52603       64.75536      111.04165
H        102.18342       65.96091      109.03242
H        102.92032       64.50009      108.29769
H        104.70290       65.93282      109.10244
H        104.66105       64.35102      109.95489
H        103.53359       65.47156      111.93300
H        103.67032       67.05409      111.07693
H        105.47171       66.66519      112.62740
H        105.90834       65.22315      111.84524
H        106.08545       66.71868      111.03809
N         99.44958       64.33593      107.54417
C         98.52904       65.25253      106.87963
C         97.28996       64.52595      106.34919
O         96.33896       65.20808      105.99300
C         99.27946       65.91392      105.70463
C        100.49704       66.75085      106.15035
C        101.41590       67.06970      104.99396
O        102.11289       66.20496      104.50130
O        101.42424       68.28280      104.43655
H         99.91066       63.63981      106.95280
H         98.16694       66.02408      107.59286
H         98.60221       66.55437      105.09697
H         99.60873       65.08359      105.06271
H        101.11031       66.21628      106.90277
H        100.10524       67.68040      106.61514
N         97.22906       63.16439      106.23376
C         96.07703       62.44231      105.72908
H         95.21590       63.10725      105.51285
H         96.35472       61.90804      104.79530
H         95.76118       61.68777      106.48004
H         98.03763       62.58795      106.48015
Ca       102.70823       68.80802      102.64504
O        105.01394       66.81545      103.37231
H        105.47794       66.44493      102.58040
H        105.38997       66.31201      104.13715

Ca 1.0



