%chk=holoCaM.loop2.water2.frame68.chk
%nprocshared=20
%mem=10GB
%nosave
#b3lyp/svp scf=(tight,noincore,xqc) Test 
#IOP(5/87=12) Density=Current Pop=(MK,readradii) iop(6/33=2) iop(6/42=6)

holoCaM.loop2.water2.frame68 

   -2  1 
C         78.05826       35.38278       14.89406
C         77.02711       36.45315       14.66880
O         75.94277       36.37493       15.22598
H         78.95538       35.83946       15.37011
H         77.67322       34.59602       15.57619
H         78.36186       34.92312       13.93186
N         77.34065       37.53262       13.90565
C         76.50128       38.72576       13.82820
C         75.23781       38.54353       12.97484
O         75.25204       37.74371       12.05032
C         77.34580       39.86433       13.22482
C         76.87763       41.24264       13.57856
O         77.45266       42.18128       13.05619
O         75.83860       41.44973       14.43380
H         78.28656       37.55540       13.49041
H         76.25402       38.99857       14.87520
H         77.40568       39.72425       12.12145
H         78.38488       39.81969       13.60965
N         74.13392       39.32143       13.19533
C         72.93769       39.36240       12.35105
C         72.50506       40.80453       12.00638
O         71.45118       40.96182       11.40421
C         71.79966       38.66874       13.10666
H         74.12085       39.90710       14.03556
H         73.09584       38.80274       11.40362
H         71.60205       39.17484       14.07614
H         70.86692       38.67287       12.50212
H         72.07380       37.61025       13.30123
N         73.21968       41.89887       12.41130
C         72.71789       43.27324       12.34992
C         73.77373       44.34051       12.00094
O         73.36665       45.43471       11.63355
C         72.05556       43.62729       13.70802
C         72.86754       43.20088       14.90113
O         74.04283       43.47853       14.97062
O         72.31332       42.45969       15.87830
H         74.07152       41.74120       12.93995
H         71.92782       43.35903       11.57176
H         71.08385       43.10148       13.79881
H         71.86029       44.72034       13.75451
N         75.11864       44.14275       12.12695
C         76.11237       45.18274       11.87007
C         76.13536       46.29535       12.91062
O         76.82328       47.28218       12.69268
H         75.46348       43.23143       12.41914
H         75.95599       45.58940       10.84944
H         77.13093       44.73627       11.90080
N         75.46675       46.18288       14.09225
C         75.51542       47.16747       15.16675
C         76.88919       47.23095       15.87260
O         77.05009       48.06544       16.75156
C         74.37295       46.90696       16.18348
C         74.51891       45.67986       17.02718
N         73.62462       45.43548       17.99824
O         75.43962       44.90220       16.85720
H         74.89136       45.36334       14.23422
H         75.27794       48.15439       14.71738
H         73.40108       46.82729       15.64618
H         74.31447       47.76967       16.87803
H         72.82188       46.05506       18.17703
H         73.77112       44.61951       18.58139
N         77.92324       46.39881       15.53217
C         79.27005       46.46341       16.09856
C         79.46827       45.77747       17.45177
O         80.58214       45.81411       17.95361
H         77.79305       45.74547       14.75601
H         79.60154       47.52306       16.12422
H         79.95351       45.92806       15.40340
N         78.45990       45.11963       18.08573
C         78.56128       44.41693       19.36707
C         78.01266       43.00631       19.27556
O         76.94173       42.81680       18.72460
C         77.69427       45.13596       20.42859
C         78.35902       46.41543       20.91432
O         76.41932       45.43853       19.91710
H         77.54469       45.13130       17.64386
H         79.60696       44.37670       19.74910
H         77.59340       44.49781       21.34163
H         75.86280       44.62228       20.00771
H         78.59289       47.08926       20.06616
H         77.68318       46.93380       21.62633
H         79.29840       46.15759       21.45142
N         78.60679       41.99413       19.96438
C         77.92572       40.72809       20.22557
C         76.74836       40.99177       21.15446
O         76.93086       41.55589       22.22477
C         78.92752       39.67160       20.78366
C         79.83143       39.22869       19.59544
C         78.21232       38.44363       21.38752
C         80.88322       38.17119       19.91486
H         79.50295       42.17736       20.44229
H         77.52490       40.30853       19.28378
H         79.51611       40.13411       21.60716
H         80.34769       40.11158       19.16024
H         79.17731       38.79612       18.80497
H         77.69894       37.85202       20.60351
H         78.94442       37.79650       21.91258
H         77.47552       38.73815       22.16139
H         81.63259       38.56898       20.62681
H         80.42032       37.24933       20.32130
H         81.39372       37.88544       18.96954
N         75.50766       40.55202       20.80210
C         74.31332       40.70918       21.62136
C         74.05694       39.42697       22.37501
O         74.82377       38.50446       22.19341
C         73.12624       41.06725       20.71658
C         73.46753       42.24867       19.86615
O         74.16436       42.09732       18.69647
O         73.07885       43.34310       20.23515
H         75.40790       40.01051       19.93549
H         74.46823       41.51387       22.37448
H         72.24730       41.30411       21.35805
H         72.83311       40.22985       20.04630
N         73.04514       39.28427       23.27578
C         72.87841       38.04342       24.03166
C         72.64845       36.84187       23.10646
O         73.44070       35.91581       23.21988
C         71.84110       38.20662       25.16865
C         71.57319       36.92384       25.92882
C         72.60439       36.22118       26.58306
C         70.26127       36.42259       25.99313
C         72.32134       35.03794       27.27747
C         69.98380       35.24492       26.69092
C         71.01238       34.55127       27.33095
H         72.41760       40.08207       23.45973
H         73.83555       37.84607       24.56725
H         70.88968       38.61167       24.78560
H         72.23085       38.96678       25.88154
H         73.62462       36.58162       26.55758
H         69.44901       36.94571       25.50471
H         73.11542       34.49669       27.77644
H         68.96901       34.87136       26.73459
H         70.79317       33.63783       27.86923
N         71.65368       36.73888       22.16415
C         71.44856       35.52392       21.37832
C         72.58489       35.18981       20.42166
O         72.62614       34.07774       19.91559
C         70.12399       35.76657       20.64691
C         69.42615       36.73414       21.59671
C         70.57537       37.67125       21.94304
H         71.32685       34.69823       22.11334
H         70.31280       36.33119       19.70432
H         69.56095       34.84097       20.40067
H         68.53269       37.23800       21.17341
H         69.13340       36.18447       22.52156
H         70.82159       38.29326       21.05189
H         70.34076       38.33527       22.78527
N         73.53933       36.11109       20.12089
C         74.73184       35.81325       19.33745
C         75.71322       35.08268       20.23477
O         76.17014       34.00646       19.88094
C         75.30544       37.11661       18.76026
C         74.25894       37.74965       17.81782
C         74.71715       39.02225       17.21281
O         75.92079       39.52464       17.51780
O         73.98495       39.61621       16.44088
H         73.43624       37.06781       20.49001
H         74.48360       35.18450       18.45290
H         76.23334       36.90153       18.18319
H         75.56333       37.81622       19.57979
H         73.32094       37.97754       18.36529
H         74.03047       37.04220       16.99329
N         76.01081       35.59426       21.46053
C         76.80825       34.93997       22.47086
H         77.65617       35.59662       22.75528
H         76.17364       34.78458       23.37211
H         77.18900       33.95689       22.13401
H         75.59947       36.48346       21.72822
Ca        75.36937       42.00395       16.67049
O         78.22797       40.66344       16.23291
H         78.15672       40.13355       17.05892
H         78.98972       40.25412       15.75732
O         77.79520       43.35571       15.66488
H         78.04715       43.60671       14.74605
H         78.66337       43.15060       16.08800

Ca 1.0



