%chk=holoCaM-CaMKII.loop1.water2.frame321.chk
%nprocshared=20
%mem=10GB
%nosave
#b3lyp/svp scf=(tight,noincore,xqc) Test 
#IOP(5/87=12) Density=Current Pop=(MK,readradii) iop(6/33=2) iop(6/42=6)

holoCaM-CaMKII.loop1.water2.frame321 

   0  1 
C         31.75731       32.63723       70.63479
C         30.43024       31.93921       70.58505
O         29.40709       32.59356       70.68658
H         32.30186       32.46507       69.68187
H         31.62993       33.72974       70.78417
H         32.35916       32.22666       71.47333
N         30.39747       30.59319       70.39567
C         29.19748       29.75851       70.31436
C         28.51329       29.61958       71.68298
O         28.62911       28.56679       72.29649
C         29.64785       28.37328       69.76632
C         28.55235       27.37803       69.52482
O         27.38722       27.65179       69.74194
O         28.87035       26.15832       69.05844
H         31.31265       30.13369       70.25895
H         28.48662       30.17455       69.56549
H         30.37476       27.91645       70.47186
H         30.15903       28.52757       68.79165
N         27.77124       30.62842       72.23097
C         27.14052       30.50464       73.54616
C         25.90126       29.60857       73.54280
O         25.32973       29.41049       74.60623
C         26.78130       31.89050       74.13517
C         27.96427       32.88343       74.20708
C         29.26035       32.32585       74.82589
C         29.09832       31.79762       76.25949
N         30.36836       31.26307       76.75193
H         27.66221       31.51074       71.71969
H         27.87741       30.04760       74.23806
H         26.39640       31.73598       75.16703
H         25.96570       32.36391       73.54504
H         27.63129       33.78041       74.77368
H         28.21613       33.22163       73.18018
H         30.02065       33.13678       74.82418
H         29.64929       31.51224       74.17713
H         28.34146       30.98569       76.28989
H         28.75301       32.61757       76.92587
H         31.09199       32.01750       76.77706
H         30.23362       30.88597       77.71747
H         30.69447       30.48545       76.13167
N         25.43663       29.02255       72.40266
C         24.26744       28.14591       72.34274
C         24.65903       26.69710       72.05704
O         23.77345       25.85291       72.03830
C         23.24860       28.70325       71.31260
C         23.89008       29.10529       69.99983
O         23.84759       30.27201       69.64931
O         24.60153       28.21946       69.27377
H         25.94435       29.17850       71.52317
H         23.75392       28.10097       73.32905
H         22.79092       29.61667       71.75504
H         22.42758       27.97211       71.14896
N         25.95970       26.31739       71.88880
C         26.40228       24.94015       71.73476
C         25.90918       24.20708       70.49977
O         26.26026       23.04184       70.37522
H         26.70154       27.02081       71.95243
H         26.08172       24.36813       72.63214
H         27.51454       24.92820       71.70785
N         25.08254       24.76569       69.56574
C         24.52300       23.97945       68.46660
C         25.55647       23.53141       67.43638
O         25.19753       22.73102       66.58379
C         23.33682       24.71618       67.79236
C         23.67186       26.00788       67.09976
O         22.69623       26.71357       66.49929
O         24.80959       26.43172       67.07740
H         24.77372       25.73711       69.67952
H         24.08498       23.06223       68.91975
H         22.57764       24.94034       68.57178
H         22.87220       24.04107       67.04295
N         26.83574       24.00925       67.42719
C         27.83938       23.58784       66.46056
C         28.23915       24.69461       65.50815
O         29.07535       24.42882       64.65582
H         27.11719       24.71546       68.11729
H         27.46610       22.74900       65.83403
H         28.73396       23.22017       67.00733
N         27.66552       25.93563       65.54345
C         27.93383       26.96089       64.54292
C         27.86413       28.41007       65.11871
O         28.13819       28.44477       66.49005
C         26.92005       26.84608       63.36429
C         27.20772       25.64879       62.45841
O         25.59857       26.72749       63.83090
H         26.95862       26.14356       66.25126
H         28.97250       26.82110       64.16394
H         27.00159       27.74127       62.70892
H         25.45323       27.42565       64.51494
H         27.10241       24.68930       63.00248
H         26.48387       25.64275       61.61509
H         28.23139       25.72939       62.03442
N         28.86832       29.21435       64.40071
C         29.02020       30.63555       64.75875
C         28.41908       31.50409       63.65907
O         28.82700       31.38227       62.51132
C         30.54093       30.92950       64.95556
C         31.08899       30.08102       66.13730
C         30.80208       32.42835       65.19962
C         32.59770       30.21088       66.35861
H         28.88467       29.04661       63.36742
H         28.51872       30.85751       65.72474
H         31.07564       30.64023       64.02296
H         30.88774       29.00629       65.94198
H         30.56542       30.36514       67.07710
H         30.43181       33.03346       64.35055
H         30.31277       32.76456       66.13543
H         31.88679       32.64310       65.26418
H         32.90472       29.53954       67.18830
H         33.14786       29.91640       65.44019
H         32.88311       31.24172       66.64908
N         27.46804       32.43356       63.95183
C         26.90772       33.34352       62.95802
C         27.74072       34.60968       62.88949
O         28.70136       34.73982       63.63089
C         25.43459       33.68520       63.30756
C         24.56080       32.43651       63.38450
O         25.38107       34.36099       64.53847
H         27.19978       32.56749       64.93435
H         26.92727       32.86586       61.95271
H         25.02348       34.33314       62.49939
H         24.62198       34.99925       64.49393
H         23.51193       32.72522       63.60904
H         24.58165       31.88664       62.42021
H         24.92271       31.77643       64.19661
N         27.41833       35.60399       62.02162
C         28.13144       36.87718       61.97070
C         28.07052       37.57603       63.32461
O         29.11251       37.95082       63.84282
C         27.56107       37.78823       60.85272
C         27.84372       37.20544       59.46034
O         26.17808       37.96424       61.02281
H         26.61614       35.45653       61.39136
H         29.20408       36.69860       61.72722
H         28.07881       38.77364       60.92021
H         25.90895       38.72684       60.44721
H         28.93857       37.09173       59.30979
H         27.35913       36.21642       59.32625
H         27.45748       37.89304       58.67853
N         26.88096       37.75970       63.96347
C         26.74916       38.44175       65.25005
C         27.56552       37.75746       66.33495
O         28.32162       38.44984       67.00325
C         25.26734       38.55144       65.68616
C         24.48107       39.67111       64.96255
C         24.30071       39.48784       63.44808
C         23.61545       40.68676       62.76730
N         22.26401       40.93706       63.26846
H         26.03322       37.38073       63.51722
H         27.13223       39.48391       65.16590
H         25.25349       38.85530       66.75715
H         24.75610       37.56617       65.61573
H         25.00360       40.63576       65.14580
H         23.47947       39.72667       65.43807
H         23.72838       38.55543       63.24962
H         25.29444       39.41851       62.96975
H         23.56282       40.47716       61.67543
H         24.23708       41.59932       62.90712
H         22.29171       41.24064       64.26752
H         21.83874       41.71228       62.70997
H         21.67382       40.08057       63.16503
N         27.48827       36.41475       66.56256
C         28.26098       35.74600       67.61216
C         29.74202       36.06822       67.48728
O         30.30178       36.60701       68.43234
C         28.03750       34.21712       67.59890
C         26.60521       33.83898       68.00941
C         26.43432       32.35059       68.09987
O         26.53692       31.65258       67.10662
O         26.15274       31.77891       69.28454
H         26.87727       35.85484       65.95211
H         27.92635       36.12580       68.60419
H         28.72710       33.75605       68.33998
H         28.28002       33.80609       66.59753
H         25.86073       34.24594       67.29437
H         26.40208       34.27151       69.01258
N         30.42803       35.80596       66.34276
C         31.82207       36.15198       66.14859
H         32.40225       35.23712       65.91129
H         31.90539       36.86287       65.29922
H         32.27039       36.63188       67.04414
H         29.93731       35.36506       65.55875
Ca        26.15678       28.77536       67.66374
O         23.18193       31.17395       66.97464
H         22.88004       31.89247       67.58471
H         22.64312       30.38387       67.23339
O         24.15612       29.48332       64.82175
H         24.21031       29.39164       63.83702
H         23.27536       29.10095       65.05857

Ca 1.0



