%chk=holoCaM.loop4.water3.frame50.chk
%nprocshared=20
%mem=10GB
%nosave
#b3lyp/svp scf=(tight,noincore,xqc) Test 
#IOP(5/87=12) Density=Current Pop=(MK,readradii) iop(6/33=2) iop(6/42=6)

holoCaM.loop4.water3.frame50 

   -3  1 
C        104.03264       85.39026       29.49731
C        103.18988       86.60471       29.73440
O        102.22393       86.51329       30.47965
H        105.05404       85.58930       29.88824
H        103.62008       84.51638       30.04801
H        104.08727       85.15224       28.41734
N        103.51926       87.80145       29.16673
C        102.90967       89.04382       29.61777
C        103.09544       90.20038       28.64288
O        104.22283       90.49043       28.26338
C        103.54959       89.40246       30.96978
C        103.01090       90.68762       31.49188
O        101.80800       90.82605       31.62673
O        103.84928       91.70568       31.76373
H        104.35164       87.84681       28.55841
H        101.81888       88.89253       29.77218
H        104.65316       89.48901       30.85970
H        103.33856       88.60229       31.70850
N        102.01878       90.96850       28.28315
C        102.11159       92.17162       27.45823
C        101.68142       93.45410       28.19128
O        101.86710       94.51017       27.60715
C        101.26388       92.02341       26.15338
C         99.75108       91.81739       26.46060
C        101.82166       90.89073       25.27620
C         98.85250       91.94028       25.22850
H        101.09158       90.70250       28.64043
H        103.17199       92.33866       27.16585
H        101.37550       92.97077       25.57942
H         99.40546       92.59841       27.17000
H         99.58157       90.82616       26.93236
H        101.72538       89.90965       25.78747
H        101.29293       90.83998       24.30316
H        102.89386       91.07713       25.05495
H         98.96656       92.94774       24.77398
H         99.08035       91.16517       24.47095
H         97.79179       91.81451       25.53451
N        101.03996       93.45431       29.40562
C        100.47700       94.68137       29.99490
C        100.83571       94.92507       31.46588
O        100.42416       95.95411       31.98895
C         98.94810       94.70226       29.76681
C         98.16734       93.57394       30.38612
O         98.76736       92.61046       31.10825
O         96.95979       93.52818       30.21855
H        100.83303       92.55742       29.85568
H        100.86241       95.57032       29.45101
H         98.76703       94.67143       28.66999
H         98.53650       95.66276       30.14679
N        101.60526       94.07003       32.19421
C        102.02004       94.31779       33.57444
C        100.90369       94.30887       34.61497
O        101.20182       94.56951       35.77195
H        101.97492       93.23723       31.73349
H        102.54036       95.29942       33.61220
H        102.75366       93.53853       33.87511
N         99.60762       94.03482       34.29607
C         98.48956       94.10763       35.24497
C         98.46442       93.01269       36.31926
O         97.52790       93.00064       37.10704
C         97.16106       94.11063       34.45380
C         96.89971       92.86303       33.65463
O         97.73834       91.81064       33.70063
O         95.91391       92.81144       32.94020
H         99.38763       93.83730       33.31300
H         98.53551       95.09129       35.76116
H         97.19142       94.96869       33.74722
H         96.30759       94.27181       35.14683
N         99.43286       92.06356       36.42145
C         99.40379       90.98183       37.38936
C         98.26161       90.02564       37.13333
O         97.50165       89.75103       38.04992
H        100.24401       92.10176       35.80165
H         99.36589       91.38741       38.42445
H        100.34477       90.39608       37.29281
N         98.12571       89.43580       35.91071
C         97.16918       88.37610       35.61287
C         97.46737       87.78062       34.20871
O         96.92502       88.53916       33.16944
C         95.68207       88.79066       35.81205
C         95.24473       90.08349       35.08754
C         93.77834       90.39797       35.26905
N         93.24720       91.49204       34.67574
O         93.05861       89.66598       35.93284
H         98.79479       89.69869       35.17517
H         97.38028       87.55589       36.33433
H         95.49444       88.94861       36.89406
H         95.04231       87.93925       35.49205
H         95.40153       90.01071       34.00077
H         95.84279       90.93422       35.47640
H         93.83088       92.11811       34.10551
H         92.24598       91.71240       34.77759
N         97.00046       86.38520       34.08390
C         97.34177       85.82005       32.75354
C         96.08457       85.69370       31.90014
O         95.20935       84.90314       32.22188
C         98.15994       84.49071       32.85020
C         97.43312       83.35023       33.58582
C         98.60002       84.00838       31.45724
H         97.48630       85.85057       34.83827
H         98.03394       86.51301       32.23730
H         99.08510       84.72060       33.42473
H         96.52476       83.02223       33.04329
H         98.10879       82.47255       33.66990
H         97.14828       83.64793       34.61482
H         99.16976       84.80227       30.93059
H         99.25664       83.11753       31.54589
H         97.72279       83.72887       30.84034
N         95.93102       86.46412       30.78408
C         94.79576       86.34102       29.87045
C         94.87079       85.01762       29.11481
O         95.86927       84.32770       29.21077
C         94.82504       87.54520       28.88975
C         93.68525       87.64644       27.90922
N         92.40535       87.73973       28.33511
O         93.92531       87.68290       26.71228
H         96.64585       87.17643       30.58251
H         93.85961       86.38698       30.46848
H         95.78640       87.53079       28.32962
H         94.79387       88.47138       29.49114
H         92.17867       87.72630       29.33906
H         91.63784       87.83022       27.65453
N         93.83246       84.59702       28.34734
C         93.87139       83.40859       27.49048
C         94.90086       83.55733       26.37276
O         95.69620       82.64603       26.18920
C         92.44630       83.01952       26.98837
C         91.52128       84.17024       26.63210
C         91.70448       84.96933       25.49292
C         90.45118       84.46438       27.50226
C         90.86008       86.06138       25.25356
C         89.60923       85.54786       27.25961
C         89.81467       86.35741       26.14228
O         89.00735       87.41760       25.93954
H         92.97663       85.16203       28.38117
H         94.19274       82.52352       28.08795
H         91.98251       82.50389       27.85866
H         92.49007       82.25527       26.18234
H         92.49590       84.75815       24.79082
H         90.27803       83.86753       28.38976
H         91.02312       86.68154       24.38180
H         88.80544       85.76489       27.95234
H         89.12910       88.02383       25.19587
N         94.96927       84.68022       25.60643
C         95.93100       84.86756       24.51979
C         97.35814       84.79682       25.03977
O         98.13820       84.01203       24.51854
C         95.65408       86.20422       23.80060
C         96.53483       86.39033       22.55442
C         96.14562       87.62889       21.79970
O         97.04058       88.61694       21.61193
O         95.02123       87.73749       21.33545
H         94.31187       85.44047       25.81238
H         95.77488       84.06223       23.76614
H         95.79458       87.06014       24.49695
H         94.59026       86.19045       23.47336
H         96.41576       85.51886       21.87430
H         97.60214       86.45918       22.85633
N         97.74478       85.54586       26.11134
C         99.06712       85.44863       26.73033
C         99.40969       84.00499       27.08058
O        100.52482       83.57659       26.81859
C         99.10857       86.22511       28.05550
C         99.04065       87.76821       27.99736
C         99.07497       88.29419       29.41711
O         99.09382       87.50457       30.34496
O         99.13002       89.59748       29.73721
H         97.03733       86.15552       26.54971
H         99.85387       85.84969       26.05420
H        100.07563       85.98383       28.55571
H         98.27923       85.84437       28.69583
H         98.10868       88.11329       27.50238
H         99.91627       88.15600       27.43426
N         98.49887       83.20863       27.69951
C         98.79097       81.86356       28.13835
H         99.56802       81.89249       28.93122
H         97.87349       81.40155       28.56424
H         99.14070       81.24471       27.28662
H         97.55522       83.56921       27.85462
Ca        98.43435       89.69434       31.88967
O        100.81530       90.54366       34.04298
H        101.31546       90.08961       34.76558
H        101.26354       91.42015       33.94439
O        100.82607       88.01875       32.77376
H        101.60736       87.90724       33.37091
H        100.60237       87.10025       32.48439
O         95.79476       90.28437       30.74451
H         96.34756       90.92577       30.23367
H         95.83780       90.59827       31.67998

Ca 1.0



