%chk=holoCaM-CaMKII.loop4.water2.frame132.chk
%nprocshared=20
%mem=10GB
%nosave
#b3lyp/svp scf=(tight,noincore,xqc) Test 
#IOP(5/87=12) Density=Current Pop=(MK,readradii) iop(6/33=2) iop(6/42=6)

holoCaM-CaMKII.loop4.water2.frame132 

   -3  1 
C         41.36744       27.50404       71.54718
C         42.57038       27.09268       72.33329
O         43.63307       27.66213       72.14177
H         40.55803       27.83625       72.22875
H         41.62647       28.33074       70.85299
H         41.01368       26.63728       70.94952
N         42.47438       26.10039       73.25462
C         43.62913       25.58781       73.96712
C         44.45216       24.72775       73.03620
O         43.93074       23.79586       72.43743
C         43.18225       24.83627       75.22107
C         44.30849       24.16745       75.92018
O         44.13344       22.92995       76.38998
O         45.40520       24.68205       75.97405
H         41.54966       25.68057       73.43936
H         44.24510       26.43845       74.34246
H         42.42951       24.06018       74.98371
H         42.74508       25.58281       75.91553
N         45.76986       25.01475       72.88043
C         46.65203       24.32996       71.95257
C         47.76933       23.57702       72.70516
O         48.54411       22.89490       72.04925
C         47.15262       25.36779       70.89180
C         48.22920       26.27995       71.51252
C         45.97572       26.20386       70.32043
C         48.61750       27.50804       70.69586
H         46.15646       25.78603       73.43623
H         46.07748       23.55793       71.39366
H         47.60644       24.81351       70.04251
H         49.13121       25.66335       71.69332
H         47.87652       26.64319       72.48258
H         45.66356       26.98650       71.04156
H         46.28661       26.73132       69.39309
H         45.09365       25.57631       70.07394
H         47.76299       28.21287       70.58401
H         49.41403       28.04860       71.24893
H         48.97980       27.20613       69.69618
N         47.90416       23.64071       74.07436
C         48.86206       22.84509       74.84920
C         48.20052       21.96709       75.91722
O         48.91308       21.26029       76.61721
C         50.03075       23.70933       75.33918
C         49.73473       24.77213       76.33127
O         50.59380       25.61066       76.53182
O         48.65838       24.70732       77.13384
H         47.30483       24.27466       74.60919
H         49.35054       22.11070       74.17948
H         50.46611       24.19492       74.43854
H         50.82378       23.07586       75.78913
N         46.84538       21.81570       75.95984
C         46.21512       20.64355       76.55569
C         46.11765       20.61713       78.06005
O         45.83270       19.56186       78.60925
H         46.25994       22.39585       75.35276
H         46.76880       19.75491       76.19358
H         45.17811       20.55486       76.16617
N         46.21088       21.76414       78.77391
C         45.97162       21.86664       80.21007
C         44.52926       22.25164       80.53014
O         44.17645       22.32834       81.69971
C         46.95393       22.88744       80.81339
C         46.78050       24.33582       80.37423
O         46.51233       24.65768       79.08107
O         47.15705       25.19785       81.14354
H         46.32124       22.61743       78.22765
H         46.16351       20.87298       80.68245
H         47.99246       22.58104       80.56824
H         46.86579       22.84354       81.92016
N         43.63399       22.47688       79.53058
C         42.24440       22.82931       79.72575
C         42.03760       24.26820       80.10457
O         40.90970       24.61597       80.42652
H         43.93651       22.36155       78.56833
H         41.76173       22.12343       80.42935
H         41.72209       22.73761       78.74625
N         43.03826       25.18764       79.99286
C         42.78422       26.61675       80.07971
C         43.26547       27.31888       78.83617
O         43.99192       26.74090       78.05090
C         43.34858       27.20365       81.38292
C         42.51274       26.65312       82.55027
C         42.80471       27.32874       83.85460
N         43.82916       26.91154       84.62782
O         42.07181       28.22539       84.24651
H         43.98871       24.88567       79.74015
H         41.69117       26.80735       80.07198
H         43.22717       28.30808       81.34945
H         44.43100       26.97529       81.51312
H         42.64853       25.55552       82.65868
H         41.43904       26.83223       82.31986
H         44.42144       26.12423       84.32771
H         44.00390       27.35274       85.54230
N         42.80560       28.56455       78.55558
C         43.15705       29.31163       77.36186
C         43.89666       30.56905       77.81227
O         43.32815       31.40271       78.50345
C         41.86460       29.60529       76.54462
C         42.13100       30.57096       75.38791
C         41.21606       28.32055       75.98096
H         42.14487       29.00203       79.21396
H         43.84106       28.72380       76.70883
H         41.12792       30.08850       77.22092
H         42.84198       30.13643       74.65309
H         41.17158       30.80486       74.88045
H         42.54247       31.52320       75.77838
H         40.94063       27.60092       76.78031
H         40.28086       28.57833       75.43588
H         41.89681       27.81312       75.26586
N         45.20788       30.72353       77.48027
C         46.06151       31.83304       77.87623
C         45.81665       33.00424       76.96214
O         45.11858       32.84142       75.98568
C         47.54131       31.34215       77.80781
C         48.54950       32.21923       78.51095
N         49.03073       31.86416       79.71923
O         48.95882       33.24144       77.99599
H         45.64665       29.98091       76.94842
H         45.82530       32.10493       78.92517
H         47.87996       31.11457       76.76791
H         47.55335       30.36930       78.34059
H         48.69703       31.01044       80.18594
H         49.72186       32.46147       80.19519
N         46.37249       34.21220       77.21650
C         46.37078       35.35615       76.30429
C         47.09533       35.00920       75.00088
O         46.58426       35.25966       73.91934
C         47.13358       36.50010       77.00028
C         47.29257       37.67482       76.08719
C         46.16718       38.40365       75.68287
C         48.56428       38.02636       75.60808
C         46.31128       39.48460       74.81254
C         48.70584       39.10611       74.74236
C         47.58333       39.84449       74.34884
O         47.72758       40.90348       73.53240
H         46.85636       34.31123       78.11821
H         45.33175       35.68572       76.08157
H         48.13611       36.12068       77.30210
H         46.60845       36.81090       77.92989
H         45.18384       38.13147       76.04747
H         49.44541       37.46151       75.89031
H         45.43450       40.04051       74.50642
H         49.68820       39.36975       74.37356
H         48.60682       41.19800       73.25379
N         48.31445       34.41993       75.07267
C         49.14481       33.96765       73.96079
C         48.40358       33.00032       73.04242
O         48.71185       32.92978       71.86159
C         50.37610       33.28463       74.59186
C         51.41803       32.81548       73.58903
C         52.63869       32.32097       74.31310
O         52.53399       31.35136       75.24317
O         53.73083       32.81016       74.07386
H         48.66843       34.25919       76.01457
H         49.46203       34.85488       73.37180
H         50.03458       32.40959       75.19780
H         50.85124       34.01892       75.28093
H         51.69466       33.66269       72.92547
H         50.99019       31.99280       72.98096
N         47.39967       32.23681       73.53739
C         46.54118       31.34366       72.76757
C         45.33983       32.10803       72.22763
O         44.91851       31.85495       71.10757
C         46.10088       30.19080       73.71963
C         47.23566       29.15838       73.84731
C         47.15057       28.08074       74.92327
O         47.92112       27.14172       74.85739
O         46.32580       28.11966       75.98289
H         47.18210       32.34276       74.53643
H         47.07227       30.92633       71.88012
H         45.21163       29.66672       73.31126
H         45.81893       30.61652       74.70120
H         48.22574       29.65506       73.94682
H         47.22221       28.65694       72.86601
N         44.74943       33.06602       72.98233
C         43.60188       33.85566       72.62132
H         42.79276       33.64782       73.35478
H         43.87780       34.92900       72.70441
H         43.24631       33.63958       71.59636
H         45.15414       33.28035       73.87858
Ca        46.44667       26.37791       77.50410
O         46.93011       27.89441       79.73466
H         47.54543       28.48835       80.22644
H         46.60353       27.27272       80.42282
O         49.08039       28.02860       77.89733
H         49.78983       27.48384       77.49537
H         49.49222       28.92445       77.92723

Ca 1.0



