%chk=holoCaM-CaMKII.loop1.water2.frame108.chk
%nprocshared=20
%mem=10GB
%nosave
#b3lyp/svp scf=(tight,noincore,xqc) Test 
#IOP(5/87=12) Density=Current Pop=(MK,readradii) iop(6/33=2) iop(6/42=6)

holoCaM-CaMKII.loop1.water2.frame108 

   0  1 
C         22.22589       27.27824       55.34080
C         22.33070       26.70142       53.96472
O         22.23425       25.49039       53.82924
H         22.35543       28.38027       55.32807
H         21.22697       27.03899       55.76201
H         23.01245       26.83166       55.98423
N         22.49387       27.50807       52.87973
C         22.58210       26.96516       51.53509
C         23.96531       26.36309       51.32961
O         24.93747       27.05852       51.59644
C         22.32993       28.05638       50.47886
C         22.05945       27.42526       49.14284
O         22.09688       28.10093       48.13267
O         21.72144       26.12096       49.07045
H         22.50714       28.53156       53.01152
H         21.76731       26.21531       51.42892
H         23.21104       28.73445       50.42678
H         21.43729       28.66720       50.73266
N         24.13950       25.09154       50.86395
C         25.44758       24.43639       50.83559
C         25.99983       24.23071       49.42729
O         27.16500       23.87056       49.32869
C         25.37965       23.09171       51.60537
C         24.62704       23.17580       52.95387
C         25.16575       24.20831       53.95379
C         26.53486       23.84591       54.52864
N         27.01206       24.91584       55.40502
H         23.31418       24.55724       50.57590
H         26.18855       25.08703       51.34890
H         26.40431       22.68678       51.74780
H         24.81498       22.35988       50.98507
H         24.58981       22.17180       53.42970
H         23.58292       23.46027       52.72519
H         24.44907       24.27966       54.80106
H         25.20878       25.20529       53.47639
H         27.27230       23.69356       53.71279
H         26.44181       22.89954       55.10738
H         27.91405       24.62571       55.84519
H         27.17391       25.78351       54.84252
H         26.31252       25.11478       56.15722
N         25.25258       24.43366       48.29866
C         25.80345       24.32977       46.94151
C         25.55097       25.59531       46.10644
O         25.98945       25.62947       44.96447
C         25.27323       23.06638       46.22187
C         23.78111       23.04356       46.10157
O         23.12693       24.12813       45.65980
O         23.15155       22.09192       46.52823
H         24.25216       24.65485       48.39747
H         26.90741       24.20480       46.98559
H         25.59928       22.16366       46.78707
H         25.72629       23.01024       45.21086
N         24.88332       26.67867       46.60197
C         24.69226       27.91685       45.86454
C         23.75554       27.81577       44.67821
O         24.16277       28.19034       43.58766
H         24.54634       26.67587       47.57317
H         25.68176       28.31386       45.54542
H         24.24518       28.66947       46.54873
N         22.45751       27.41547       44.83396
C         21.44855       27.55224       43.77940
C         20.33376       28.52741       44.17954
O         19.51278       28.83855       43.32685
C         20.90130       26.18317       43.32069
C         20.23100       25.38063       44.39518
O         19.16791       25.87652       45.04525
O         20.61133       24.24833       44.64271
H         22.16109       27.06459       45.75377
H         21.91347       28.00603       42.87768
H         21.73948       25.58945       42.89538
H         20.15951       26.34785       42.50946
N         20.24960       29.07406       45.43035
C         19.29635       30.10171       45.81438
C         18.31364       29.65433       46.87819
O         17.60247       30.51038       47.38019
H         20.91241       28.79538       46.15891
H         18.70841       30.47538       44.94874
H         19.88276       30.96039       46.20941
N         18.15424       28.33866       47.22029
C         17.14133       27.88623       48.17701
C         17.73032       26.94810       49.22377
O         18.88045       26.55623       49.13125
C         15.96881       27.19522       47.43148
C         15.18205       28.17684       46.54829
O         16.41662       26.09339       46.68260
H         18.71019       27.62534       46.73620
H         16.72295       28.75528       48.73001
H         15.23630       26.81571       48.17499
H         16.82114       26.43698       45.84407
H         15.82767       28.61700       45.75964
H         14.33868       27.64454       46.05920
H         14.76513       28.99701       47.17079
N         16.95121       26.58023       50.28415
C         17.36785       25.69670       51.37124
C         16.35500       24.56376       51.48402
O         15.16236       24.82172       51.44430
C         17.45193       26.50882       52.69455
C         18.54292       27.60596       52.55799
C         17.76677       25.57844       53.88836
C         18.58477       28.58384       53.73106
H         16.00705       26.98626       50.35050
H         18.37887       25.27184       51.18982
H         16.46580       26.99192       52.87370
H         18.34654       28.21915       51.65391
H         19.54121       27.13027       52.43712
H         16.97628       24.81016       54.01080
H         18.74108       25.06389       53.74012
H         17.79475       26.13671       54.84358
H         19.36683       29.34854       53.53960
H         17.60408       29.09631       53.82833
H         18.83606       28.07902       54.68391
N         16.77756       23.28267       51.68937
C         15.87118       22.13828       51.78617
C         15.89864       21.55600       53.19070
O         16.62974       22.04316       54.03246
C         16.29849       21.06281       50.75234
C         16.31889       21.62727       49.33385
O         17.57930       20.58535       51.06957
H         17.78461       23.10778       51.79846
H         14.82470       22.44537       51.57468
H         15.56979       20.22148       50.78891
H         17.70305       19.72902       50.58289
H         15.32012       22.01657       49.05066
H         17.06116       22.44526       49.27934
H         16.61994       20.83612       48.61464
N         15.12004       20.48139       53.50318
C         15.21949       19.76697       54.77634
C         16.60939       19.16806       54.92356
O         17.20762       19.28255       55.98494
C         14.17088       18.62414       54.86261
C         12.73935       19.16900       54.91379
O         14.30967       17.74428       53.77493
H         14.47364       20.12549       52.78569
H         15.02258       20.45507       55.62931
H         14.35501       18.07345       55.81640
H         13.85788       16.89671       54.02633
H         12.61765       19.83671       55.79328
H         12.48875       19.73371       53.99270
H         12.02241       18.32678       55.01759
N         17.17367       18.50908       53.87415
C         18.45190       17.80668       53.92397
C         19.57200       18.74053       54.34665
O         20.26555       18.45967       55.31333
C         18.80978       17.18191       52.54363
C         17.70570       16.33891       51.86807
C         17.14848       15.21627       52.74784
C         16.03520       14.46365       52.00482
N         15.48029       13.39507       52.83270
H         16.64475       18.50954       52.99419
H         18.37004       16.98023       54.66386
H         19.71619       16.55214       52.67888
H         19.06705       17.98440       51.81879
H         18.12673       15.90535       50.93479
H         16.86690       16.99132       51.55127
H         16.71411       15.64749       53.67503
H         17.96760       14.51692       53.02016
H         16.43979       14.02909       51.06388
H         15.22090       15.17598       51.73882
H         15.07251       13.79474       53.70918
H         14.72381       12.90878       52.29920
H         16.22714       12.70336       53.07150
N         19.78147       19.88946       53.65073
C         20.82195       20.86753       53.94947
C         20.65588       21.38585       55.36517
O         21.59245       21.29807       56.14733
C         20.76485       22.02337       52.91927
C         21.08150       21.51391       51.49526
C         20.99206       22.59232       50.45752
O         19.83968       23.25872       50.26516
O         21.94571       22.82310       49.73440
H         19.13812       20.08267       52.87513
H         21.82457       20.39065       53.86325
H         21.50375       22.80027       53.19704
H         19.75816       22.49252       52.94345
H         20.36555       20.72626       51.19131
H         22.10225       21.07158       51.48444
N         19.46669       21.89666       55.77614
C         19.23225       22.34736       57.12920
H         18.17426       22.66991       57.23902
H         19.41971       21.51662       57.84317
H         19.89644       23.20384       57.36581
H         18.68962       21.93505       55.11108
Ca        21.70363       24.93211       47.19058
O         20.07522       21.57747       47.23012
H         21.01084       21.43591       47.51521
H         20.13676       21.81314       46.27031
O         18.24772       23.71118       47.56813
H         17.64059       23.18729       46.98668
H         18.43420       24.53542       47.05936

Ca 1.0



