%chk=holoCaM.loop3.water2.frame170.chk
%nprocshared=20
%mem=10GB
%nosave
#b3lyp/svp scf=(tight,noincore,xqc) Test 
#IOP(5/87=12) Density=Current Pop=(MK,readradii) iop(6/33=2) iop(6/42=6)

holoCaM.loop3.water2.frame170 

   0  1 
C         24.69386       89.00532       -9.40908
C         25.51629       88.23559       -8.42108
O         26.39977       88.81024       -7.80111
H         23.62541       88.96819       -9.11026
H         25.01907       90.06647       -9.45311
H         24.80754       88.55420      -10.41761
N         25.28690       86.90489       -8.24585
C         26.04428       86.05960       -7.33474
C         26.93195       85.17774       -8.16943
O         26.69662       83.98701       -8.31480
C         25.08790       85.32214       -6.38223
C         25.78560       84.38877       -5.42407
O         26.80346       84.78358       -4.62231
O         25.41432       83.22954       -5.37230
H         24.56345       86.45262       -8.82701
H         26.71742       86.66622       -6.71253
H         24.33700       84.74845       -6.96936
H         24.53570       86.07100       -5.79025
N         27.98834       85.76770       -8.78917
C         28.88015       85.08767       -9.71447
C         29.77279       84.04933       -9.03105
O         30.48781       83.36511       -9.75037
C         29.73542       86.13137      -10.48033
C         28.84966       87.15980      -11.22403
C         29.67514       88.18269      -12.01241
C         28.80716       89.31626      -12.59678
N         27.78139       88.83041      -13.52188
H         28.12864       86.77339       -8.61507
H         28.25190       84.56691      -10.47141
H         30.37194       85.60539      -11.22495
H         30.39862       86.66650       -9.76468
H         28.23107       87.73070      -10.50341
H         28.17077       86.61631      -11.91411
H         30.23144       87.66622      -12.82388
H         30.41255       88.65678      -11.32804
H         29.47550       90.02421      -13.13455
H         28.31747       89.87698      -11.76863
H         27.28439       89.65185      -13.93634
H         28.21971       88.27445      -14.29083
H         27.07249       88.25223      -13.01676
N         29.78850       83.85896       -7.67240
C         30.60295       82.83392       -7.01145
C         29.75528       81.76887       -6.31502
O         30.32449       80.80007       -5.83200
C         31.61860       83.46845       -6.03623
C         30.99182       84.18629       -4.86997
O         31.22628       83.75754       -3.61533
O         30.30282       85.17713       -5.04535
H         29.19529       84.45110       -7.07815
H         31.19898       82.28723       -7.77407
H         32.27030       84.17817       -6.58970
H         32.26910       82.65857       -5.63842
N         28.39599       81.84892       -6.26120
C         27.54573       80.79615       -5.73891
C         27.72827       80.52743       -4.26636
O         27.96501       79.37852       -3.91952
H         27.91517       82.66125       -6.65940
H         27.71294       79.86580       -6.32462
H         26.48603       81.08222       -5.89295
N         27.57378       81.51764       -3.33686
C         27.56157       81.25095       -1.89703
C         26.23739       81.65048       -1.24164
O         26.04126       81.29982       -0.08647
C         28.75991       81.91057       -1.18596
C         28.65925       83.41453       -1.08278
N         28.62032       84.01136        0.13262
O         28.61772       84.09877       -2.09351
H         27.43535       82.47956       -3.67186
H         27.67045       80.15622       -1.73660
H         29.69987       81.63202       -1.70977
H         28.81858       81.48747       -0.15922
H         28.65710       83.45540        0.99980
H         28.55315       85.03478        0.21276
N         25.29639       82.39714       -1.89728
C         24.00852       82.76480       -1.33444
C         23.87352       84.25500       -1.08059
O         22.77855       84.66450       -0.72023
H         25.47417       82.73868       -2.84707
H         23.81911       82.24982       -0.36712
H         23.22178       82.43270       -2.04512
N         24.94295       85.10935       -1.13182
C         24.86763       86.49856       -0.67890
C         25.54227       87.45772       -1.64022
O         26.68551       87.22091       -2.00250
C         25.55079       86.64612        0.69446
C         24.84404       85.83587        1.75320
C         25.04695       84.44880        1.85822
C         23.95743       86.46807        2.63960
C         24.36762       83.70812        2.82985
C         23.27348       85.72541        3.60397
C         23.47607       84.34169        3.70242
O         22.81971       83.61398        4.62794
H         25.87546       84.73571       -1.36147
H         23.81196       86.81806       -0.52866
H         25.48319       87.72344        0.96666
H         26.63094       86.38890        0.66896
H         25.73189       83.94075        1.19093
H         23.78010       87.53434        2.57196
H         24.53171       82.64026        2.90159
H         22.58350       86.22724        4.27022
H         22.19047       84.01541        5.24430
N         24.92767       88.62578       -1.99909
C         25.57129       89.66305       -2.80474
C         25.76641       90.92728       -1.97832
O         24.79722       91.51339       -1.51775
C         24.79057       89.94180       -4.12787
C         23.31395       90.38185       -3.91796
C         24.86327       88.69132       -5.00400
C         22.59496       90.75666       -5.21719
H         23.98184       88.81517       -1.63577
H         26.58648       89.32832       -3.11162
H         25.32446       90.75767       -4.66531
H         23.27536       91.28810       -3.28707
H         22.73736       89.57669       -3.41546
H         24.34492       87.85172       -4.50014
H         24.40943       88.86011       -5.99650
H         25.92117       88.42142       -5.18163
H         23.14005       91.57395       -5.73602
H         22.49127       89.88947       -5.89891
H         21.56946       91.10872       -4.97901
N         27.02227       91.40728       -1.74659
C         27.27951       92.65820       -1.03718
C         26.79034       93.85273       -1.85089
O         26.30183       93.67316       -2.95676
C         28.78992       92.79864       -0.75083
O         29.51278       92.86461       -1.94877
H         27.82687       90.86454       -2.08942
H         26.75719       92.62938       -0.05561
H         29.12751       91.91800       -0.16043
H         28.97914       93.71560       -0.15079
H         30.45942       93.02098       -1.69583
N         26.92532       95.11883       -1.36669
C         26.56888       96.30956       -2.13317
C         27.38459       96.38380       -3.41249
O         26.80946       96.52795       -4.48217
C         26.82028       97.56981       -1.29584
H         27.32151       95.24204       -0.42258
H         25.48329       96.28732       -2.37887
H         26.53185       98.47514       -1.87211
H         26.20802       97.53661       -0.36958
H         27.89088       97.65333       -1.01057
N         28.74117       96.26123       -3.36446
C         29.61563       96.33006       -4.53145
C         29.22120       95.33453       -5.60477
O         29.07892       95.73974       -6.75019
C         31.06790       96.07502       -4.11232
H         29.17398       96.09765       -2.44173
H         29.56912       97.35545       -4.96272
H         31.17805       95.06137       -3.67005
H         31.74077       96.15764       -4.99284
H         31.38392       96.82919       -3.36049
N         29.00862       94.02089       -5.30573
C         28.64524       93.02404       -6.31082
C         27.41790       93.46529       -7.08974
O         27.50876       93.59537       -8.30335
C         28.38526       91.64255       -5.67072
C         29.64152       91.00823       -5.04713
C         29.30201       89.64958       -4.50142
O         28.79063       88.71755       -5.32593
O         29.45611       89.39581       -3.31809
H         29.08940       93.73275       -4.32117
H         29.48585       92.91627       -7.03335
H         28.02383       90.95807       -6.47084
H         27.58760       91.72874       -4.90033
H         30.04351       91.64825       -4.23529
H         30.42614       90.89444       -5.82512
N         26.24304       93.73742       -6.46207
C         25.07680       94.19260       -7.18670
H         24.23880       94.37492       -6.48154
H         25.30784       95.14288       -7.71528
H         24.76458       93.42489       -7.92603
H         26.17635       93.63675       -5.44121
Ca        27.83068       86.80161       -4.61498
O         29.37348       87.36041       -0.90614
H         29.03572       88.03975       -0.27011
H         30.09726       86.89645       -0.41526
O         31.67442       86.98666       -2.86731
H         32.12350       86.34743       -2.25877
H         32.17960       86.91923       -3.71600

Ca 1.0



