%chk=holoCaM.loop1.water2.frame234.chk
%nprocshared=20
%mem=10GB
%nosave
#b3lyp/svp scf=(tight,noincore,xqc) Test 
#IOP(5/87=12) Density=Current Pop=(MK,readradii) iop(6/33=2) iop(6/42=6)

holoCaM.loop1.water2.frame234 

   0  1 
C         51.45892      101.71687       61.50262
C         51.15240      102.95749       60.72933
O         51.67564      104.01021       61.07008
H         52.16782      101.94218       62.32876
H         50.52443      101.29801       61.92537
H         51.93182      100.97476       60.82520
N         50.34157      102.90403       59.63358
C         50.13383      104.07562       58.80189
C         49.30203      105.11035       59.55281
O         48.13082      104.87302       59.81658
C         49.47347      103.70486       57.46404
C         49.66291      104.78834       56.44751
O         50.51185      105.81039       56.68391
O         49.12592      104.68966       55.35919
H         49.94897      101.99431       59.34587
H         51.15610      104.45523       58.57277
H         48.39461      103.48434       57.62276
H         49.95168      102.79793       57.03519
N         49.89205      106.24306       60.01047
C         49.25129      107.17230       60.93504
C         48.24326      108.11362       60.27364
O         47.38817      108.61643       60.98922
C         50.36479      107.94083       61.67543
C         49.94232      108.63537       62.97701
C         51.13115      109.33647       63.67255
C         52.32086      108.39909       63.97847
N         53.38038      109.10186       64.69895
H         50.90265      106.32491       59.85274
H         48.72657      106.55087       61.69678
H         50.85523      108.65730       60.98036
H         51.10310      107.16783       61.96999
H         49.51809      107.87304       63.66761
H         49.15900      109.39502       62.77237
H         50.75791      109.76841       64.62663
H         51.48973      110.16947       63.03035
H         52.75884      108.01406       63.03282
H         51.97353      107.53473       64.58670
H         53.02828      109.42958       65.62681
H         54.17996      108.44452       64.85165
H         53.71908      109.91582       64.13606
N         48.30324      108.44428       58.94322
C         47.35649      109.36968       58.30167
C         46.56506      108.72836       57.15138
O         45.71424      109.40409       56.58920
C         48.05531      110.69253       57.90358
C         49.11731      110.59529       56.84833
O         49.71346      111.60301       56.50341
O         49.41340      109.42457       56.26592
H         49.06353      108.05082       58.37175
H         46.58534      109.68100       59.03994
H         48.51491      111.12858       58.81813
H         47.28607      111.40944       57.54084
N         46.70871      107.41098       56.81845
C         45.78259      106.69308       55.94665
C         45.89272      106.90050       54.44317
O         45.14474      106.22962       53.74509
H         47.39005      106.83506       57.33210
H         44.74158      106.90182       56.27672
H         45.95887      105.60661       56.10500
N         46.78293      107.74507       53.84750
C         46.91213      107.83639       52.37859
C         47.32839      106.51271       51.71034
O         47.22288      106.43660       50.49430
C         47.89147      108.96801       51.94577
C         49.25870      108.81925       52.55888
O         50.12414      109.66017       52.38350
O         49.42904      107.82711       53.44058
H         47.36527      108.33830       54.45459
H         45.90742      108.09484       51.97661
H         47.47731      109.94043       52.28768
H         47.97394      108.99792       50.83759
N         47.80522      105.44243       52.41607
C         48.09232      104.14024       51.82018
C         49.55148      103.72448       51.88036
O         49.82661      102.59294       51.50254
H         47.94240      105.52998       53.42816
H         47.78707      104.10017       50.75219
H         47.48528      103.38457       52.36328
N         50.54795      104.57370       52.26662
C         51.96932      104.21484       52.23455
C         52.64394      104.46353       53.57888
O         52.01492      104.97575       54.48994
C         52.66782      105.01556       51.10585
C         52.18596      104.53634       49.72508
O         52.40249      106.38560       51.27943
H         50.30494      105.54002       52.52722
H         52.10112      103.13032       52.02046
H         53.76564      104.84397       51.14699
H         52.67654      106.86580       50.45558
H         52.41472      103.45659       49.59650
H         51.09477      104.69578       49.60313
H         52.71708      105.09204       48.92283
N         53.93976      104.08715       53.77221
C         54.69156      104.27738       55.01098
C         55.92534      105.12951       54.73303
O         56.69979      104.81590       53.83880
C         55.02160      102.88496       55.64940
C         53.73011      102.35626       56.34398
C         56.18893      102.95874       56.65636
C         53.86765      101.00451       57.04674
H         54.42996      103.61289       52.99704
H         54.09345      104.83209       55.76632
H         55.35226      102.18333       54.85158
H         52.92003      102.26885       55.58924
H         53.40155      103.09002       57.11571
H         55.95250      103.63381       57.49620
H         56.43747      101.95568       57.05698
H         57.11584      103.30859       56.15653
H         54.59344      101.05487       57.88470
H         52.88758      100.72600       57.49068
H         54.17535      100.21942       56.32717
N         56.19791      106.18723       55.55288
C         57.38700      107.02517       55.48570
C         58.37130      106.58845       56.56202
O         58.09471      105.64156       57.28383
C         57.01136      108.52609       55.67793
C         55.99615      109.02863       54.64748
O         56.55997      108.77587       56.98955
H         55.57546      106.34879       56.34701
H         57.88857      106.89940       54.50099
H         57.91982      109.14519       55.53132
H         55.60780      108.51109       57.05450
H         55.79658      110.10920       54.81432
H         56.38494      108.89039       53.61742
H         55.04333      108.47787       54.76149
N         59.55624      107.23750       56.71754
C         60.55777      106.87423       57.71935
C         60.00277      106.96511       59.13439
O         60.21623      106.03583       59.89955
C         61.83468      107.73051       57.56956
C         62.51372      107.47217       56.21375
O         61.52708      109.09335       57.70942
H         59.75626      108.02566       56.08587
H         60.87235      105.81825       57.55228
H         62.54256      107.41835       58.37289
H         62.38927      109.56909       57.83451
H         62.75597      106.39259       56.10768
H         61.86591      107.77117       55.36422
H         63.45894      108.04862       56.14632
N         59.25155      108.02812       59.54343
C         58.62035      108.08876       60.86377
C         57.68027      106.90912       61.05951
O         57.82004      106.19420       62.04258
C         57.81717      109.39938       61.04546
C         58.72244      110.63920       61.11727
C         57.88777      111.91958       61.29287
C         58.74431      113.19641       61.37137
N         59.56681      113.24780       62.58248
H         59.08293      108.79349       58.87344
H         59.39912      108.05567       61.65902
H         57.25761      109.34482       62.00713
H         57.07647      109.50688       60.22210
H         59.32432      110.72863       60.18865
H         59.40955      110.51110       61.97940
H         57.25478      111.84919       62.20486
H         57.21495      112.01520       60.41256
H         58.05803      114.07231       61.37707
H         59.39013      113.27599       60.46913
H         60.08351      114.15667       62.60209
H         58.95875      113.19182       63.43189
H         60.26915      112.47570       62.59460
N         56.68991      106.65528       60.15805
C         55.70279      105.58448       60.32460
C         56.33879      104.19055       60.27026
O         55.64595      103.22670       60.56462
C         54.59419      105.69608       59.24319
C         53.88356      107.07167       59.25086
C         52.97118      107.28291       58.07074
O         53.38609      107.14589       56.93348
O         51.72896      107.75881       58.25114
H         56.63623      107.27259       59.33671
H         55.22600      105.71487       61.32129
H         53.83962      104.88864       59.36954
H         55.08277      105.54946       58.26765
H         54.62322      107.88700       59.18374
H         53.32762      107.20658       60.20319
N         57.63629      104.00367       59.88620
C         58.30058      102.71758       59.82899
H         59.20620      102.74755       60.47268
H         57.65150      101.88644       60.17082
H         58.62206      102.51624       58.78478
H         58.19844      104.80532       59.59625
Ca        50.77348      107.39039       55.13150
O         52.71959      110.26506       55.64942
H         52.35007      110.80257       56.39394
H         53.16693      110.92682       55.06421
O         53.01668      108.15351       53.35213
H         52.44662      108.80484       52.87592
H         53.79999      108.03618       52.75852

Ca 1.0



