%chk=holoCaM-CaMKII.loop4.water2.frame48.chk
%nprocshared=20
%mem=10GB
%nosave
#b3lyp/svp scf=(tight,noincore,xqc) Test 
#IOP(5/87=12) Density=Current Pop=(MK,readradii) iop(6/33=2) iop(6/42=6)

holoCaM-CaMKII.loop4.water2.frame48 

   -3  1 
C         12.68929       42.92251       -7.14479
C         13.60182       41.88005       -7.71623
O         14.56325       42.23846       -8.37800
H         11.86822       42.46242       -6.55549
H         13.26982       43.59210       -6.47594
H         12.24562       43.51895       -7.96815
N         13.37923       40.56033       -7.47235
C         14.25640       39.50571       -7.96052
C         14.14721       39.37226       -9.47603
O         13.03905       39.33966       -9.99276
C         13.90142       38.17493       -7.28024
C         15.01483       37.17368       -7.36317
O         14.86817       36.08630       -6.83539
O         16.21604       37.49605       -7.88402
H         12.58246       40.30231       -6.86932
H         15.29244       39.76345       -7.64020
H         12.95491       37.76585       -7.69529
H         13.76067       38.35023       -6.19111
N         15.26672       39.27610      -10.24280
C         15.28050       39.27346      -11.70271
C         15.71705       37.90800      -12.23115
O         14.90407       37.26505      -12.88237
C         16.17226       40.46638      -12.17346
C         15.49720       41.79597      -11.73777
C         16.43573       40.45390      -13.68843
C         16.38477       43.03249      -11.85912
H         16.16490       39.23743       -9.75972
H         14.25195       39.43742      -12.09833
H         17.15801       40.37725      -11.66569
H         15.22666       41.73560      -10.66946
H         14.55763       41.94614      -12.31412
H         16.95742       39.51987      -13.98402
H         15.48659       40.53644      -14.25674
H         17.10594       41.28986      -13.97616
H         15.82096       43.91659      -11.48987
H         17.28946       42.91160      -11.22676
H         16.68274       43.22852      -12.90662
N         16.96975       37.40055      -12.03076
C         17.38615       36.11125      -12.59302
C         16.69386       34.89458      -11.96066
O         16.92034       33.79770      -12.45401
C         18.92521       35.95904      -12.60007
C         19.57731       35.92382      -11.24929
O         20.78852       35.79506      -11.17288
O         18.85157       36.03591      -10.12400
H         17.66274       37.98148      -11.54442
H         17.10704       36.11859      -13.67164
H         19.36082       36.80567      -13.17508
H         19.18806       35.02081      -13.13767
N         15.79340       34.99599      -10.93525
C         14.97772       33.86473      -10.51213
C         15.69950       32.84591       -9.65295
O         15.91373       31.72802      -10.09875
H         15.56740       35.91738      -10.53670
H         14.54494       33.38349      -11.41678
H         14.11314       34.23272       -9.91731
N         15.96369       33.13357       -8.34683
C         16.47986       32.15957       -7.37655
C         16.18051       32.58188       -5.92185
O         16.88026       32.14590       -5.01776
C         17.98597       31.88462       -7.62493
C         18.73016       33.18235       -7.68928
O         19.28963       33.51699       -8.72050
O         18.58514       34.07017       -6.69789
H         15.70475       34.07180       -8.01911
H         15.92570       31.20092       -7.49152
H         18.11469       31.35945       -8.59564
H         18.40289       31.22912       -6.83104
N         15.05460       33.29293       -5.61427
C         14.59306       33.57554       -4.26012
C         15.37478       34.60046       -3.45207
O         14.91462       34.88535       -2.35345
H         14.41292       33.56747       -6.37037
H         14.51789       32.62326       -3.69208
H         13.56457       33.99128       -4.34218
N         16.52239       35.20637       -3.87744
C         17.21381       36.23503       -3.08925
C         17.39506       37.52132       -3.87572
O         17.10894       37.55560       -5.06531
C         18.57079       35.69465       -2.59126
C         18.36863       34.72613       -1.41524
C         19.66706       34.12388       -0.95173
N         20.33755       33.25105       -1.73809
O         20.10501       34.40390        0.15443
H         16.93081       34.93374       -4.78320
H         16.60961       36.52951       -2.20238
H         19.20612       36.52436       -2.21065
H         19.10620       35.21413       -3.43625
H         17.67370       33.90266       -1.68043
H         17.91741       35.30819       -0.57957
H         19.96482       32.98221       -2.66035
H         21.21667       32.82233       -1.41297
N         17.82475       38.64994       -3.23518
C         18.00607       39.94316       -3.88564
C         19.44936       40.40071       -3.68626
O         19.84566       40.73183       -2.57645
C         16.95509       40.95664       -3.34647
C         17.19140       42.38932       -3.85150
C         15.53685       40.51393       -3.75758
H         18.00635       38.60026       -2.21932
H         17.82529       39.84651       -4.97854
H         17.01568       40.98042       -2.23553
H         17.14045       42.43672       -4.95830
H         16.41916       43.06968       -3.43058
H         18.17873       42.76754       -3.51478
H         15.43876       40.50484       -4.86642
H         15.30686       39.49697       -3.37763
H         14.77541       41.21044       -3.34677
N         20.29823       40.38657       -4.74895
C         21.70974       40.76675       -4.73623
C         21.86182       42.29001       -4.67853
O         20.86611       42.99084       -4.67718
C         22.34263       40.17396       -6.03170
C         23.82625       40.35925       -6.20931
N         24.70405       39.86633       -5.30555
O         24.24213       40.95251       -7.19321
H         19.92474       40.01585       -5.62659
H         22.20498       40.29333       -3.86062
H         21.81982       40.60735       -6.91262
H         22.15666       39.07715       -6.03351
H         24.37596       39.35915       -4.47162
H         25.71751       39.99919       -5.43980
N         23.10007       42.86289       -4.64975
C         23.37647       44.30119       -4.72182
C         22.83451       44.91027       -6.00417
O         22.09570       45.88246       -5.92567
C         24.90623       44.50818       -4.60532
C         25.40169       45.92318       -4.80608
C         24.83147       47.00948       -4.12130
C         26.48450       46.15576       -5.67448
C         25.33340       48.30268       -4.30768
C         26.99630       47.44385       -5.84273
C         26.42161       48.52320       -5.15953
O         26.91036       49.77103       -5.30803
H         23.90878       42.23440       -4.58385
H         22.89672       44.81541       -3.86032
H         25.42585       43.84211       -5.33062
H         25.20021       44.17874       -3.58590
H         23.99695       46.86167       -3.44937
H         26.95316       45.33614       -6.20579
H         24.88208       49.13378       -3.78119
H         27.84348       47.59917       -6.49951
H         27.67619       49.95945       -5.86964
N         23.14156       44.37955       -7.21824
C         22.60178       44.88004       -8.48199
C         21.08408       44.91047       -8.43616
O         20.49268       45.93329       -8.75242
C         23.09916       43.97805       -9.63932
C         22.57750       44.40371      -11.02269
C         23.18061       43.55255      -12.10548
O         22.39207       42.79406      -12.89089
O         24.38826       43.55347      -12.28652
H         23.75492       43.55075       -7.23651
H         22.97476       45.91222       -8.66926
H         22.79478       42.92279       -9.45633
H         24.21058       44.02287       -9.64608
H         22.83641       45.46528      -11.22147
H         21.47097       44.29648      -11.05255
N         20.39661       43.80630       -8.04521
C         18.93881       43.71742       -8.05403
C         18.29772       44.73081       -7.10973
O         17.19386       45.17844       -7.38815
C         18.47352       42.26820       -7.75406
C         19.11482       41.27739       -8.75661
C         18.68341       39.85215       -8.60665
O         18.44962       39.19896       -9.60420
O         18.70729       39.23183       -7.41786
H         20.95328       42.99514       -7.74732
H         18.59371       43.95381       -9.08579
H         17.36550       42.21885       -7.83185
H         18.76737       41.98651       -6.71900
H         20.21055       41.25887       -8.63139
H         18.90485       41.60712       -9.79742
N         18.94523       45.16663       -5.99381
C         18.40286       46.16831       -5.10150
H         17.43460       45.82853       -4.67895
H         19.11186       46.34767       -4.26295
H         18.26285       47.12506       -5.64778
H         19.86673       44.78624       -5.76817
Ca        17.84505       36.01508       -7.49898
O         21.55703       37.65266       -8.36281
H         21.09498       36.83462       -8.67377
H         22.17451       37.88654       -9.10060
O         20.86199       35.97042       -5.65982
H         21.77661       35.77485       -5.33770
H         20.34651       35.16701       -5.40535

Ca 1.0



