%chk=holoCaM.loop3.water2.frame333.chk
%nprocshared=20
%mem=10GB
%nosave
#b3lyp/svp scf=(tight,noincore,xqc) Test 
#IOP(5/87=12) Density=Current Pop=(MK,readradii) iop(6/33=2) iop(6/42=6)

holoCaM.loop3.water2.frame333 

   0  1 
C         16.33570        8.92047       -4.34704
C         16.72223        7.56552       -4.85286
O         15.97801        6.99779       -5.64054
H         15.36453        8.85499       -3.81525
H         17.10083        9.32615       -3.65262
H         16.23757        9.61466       -5.20833
N         17.89428        6.98915       -4.46623
C         18.33076        5.70948       -4.99677
C         17.38609        4.59278       -4.54506
O         17.27664        4.35533       -3.34981
C         19.78426        5.41070       -4.55435
C         20.34082        4.23530       -5.29142
O         21.43977        3.79177       -5.01031
O         19.60828        3.65847       -6.25385
H         18.51509        7.50356       -3.82207
H         18.32970        5.80439       -6.10711
H         19.80499        5.21143       -3.46116
H         20.44918        6.27405       -4.75535
N         16.65361        3.88535       -5.45441
C         15.69223        2.85047       -5.07537
C         16.36027        1.64850       -4.43140
O         16.01925        1.33234       -3.29946
C         14.87100        2.33738       -6.28032
C         14.00081        3.41660       -6.93660
C         13.12650        2.78871       -8.03133
C         12.20862        3.82742       -8.68253
N         11.37100        3.21294       -9.71170
H         16.74967        4.13570       -6.44621
H         14.96684        3.29176       -4.35407
H         14.18899        1.54067       -5.90476
H         15.53488        1.88201       -7.04493
H         14.63852        4.21229       -7.37704
H         13.34282        3.87233       -6.16522
H         12.49523        1.99099       -7.58147
H         13.77761        2.33133       -8.80890
H         12.82368        4.62298       -9.14169
H         11.55908        4.29276       -7.90873
H         10.77110        3.94902      -10.14920
H         11.96874        2.77926      -10.45262
H         10.75494        2.48412       -9.28358
N         17.27506        0.89518       -5.11541
C         17.78617       -0.37626       -4.60982
C         19.08447       -0.25222       -3.83794
O         19.54277       -1.25520       -3.30770
C         17.78161       -1.47156       -5.70615
C         18.84747       -1.53485       -6.78967
O         18.79638       -2.47709       -7.56227
O         19.87660       -0.67654       -6.93617
H         17.53401        1.18704       -6.06397
H         17.05467       -0.75260       -3.85803
H         16.78184       -1.45450       -6.19297
H         17.87104       -2.44514       -5.17624
N         19.69841        0.95150       -3.66403
C         20.86369        1.12556       -2.82093
C         22.05364        0.35451       -3.31984
O         22.58097       -0.45866       -2.57317
H         19.30193        1.79875       -4.09218
H         20.61341        0.81740       -1.78156
H         21.13751        2.20224       -2.79453
N         22.56400        0.59913       -4.55912
C         23.79880       -0.00795       -5.04243
C         24.89831        1.04165       -5.19241
O         26.00952        0.67521       -5.54390
C         23.53710       -0.82499       -6.33070
C         23.27961       -0.01505       -7.58301
N         24.01116       -0.23520       -8.70140
O         22.39113        0.81936       -7.60640
H         22.08286        1.28530       -5.15778
H         24.16935       -0.73818       -4.29073
H         22.66420       -1.48804       -6.14437
H         24.41350       -1.48317       -6.51439
H         24.75251       -0.95088       -8.72076
H         23.82390        0.29907       -9.56313
N         24.66061        2.36495       -4.92605
C         25.65860        3.41533       -5.01833
C         25.36989        4.36595       -6.16040
O         26.11299        5.32831       -6.30564
H         23.72518        2.68100       -4.64579
H         26.67387        2.99789       -5.18530
H         25.67168        3.96746       -4.05383
N         24.37705        4.12037       -7.06463
C         24.20432        4.87431       -8.29721
C         22.77201        5.32328       -8.48361
O         21.86027        4.51515       -8.35596
C         24.62993        3.96962       -9.46877
C         26.10945        3.66793       -9.37874
C         26.56661        2.36469       -9.13023
C         27.04872        4.70435       -9.52758
C         27.93595        2.10313       -9.02381
C         28.41624        4.44159       -9.42453
C         28.86496        3.13867       -9.16976
O         30.18198        2.87184       -9.06257
H         23.78569        3.28216       -6.95783
H         24.85643        5.77412       -8.32128
H         24.43346        4.46754      -10.44331
H         24.02681        3.03414       -9.43735
H         25.86751        1.55371       -9.00508
H         26.72283        5.71823       -9.72332
H         28.27463        1.09447       -8.82390
H         29.12440        5.25236       -9.54035
H         30.85481        3.56151       -9.15550
N         22.51906        6.59717       -8.89184
C         21.19831        7.11123       -9.22431
C         21.15217        7.32295      -10.72567
O         22.00676        8.01904      -11.26118
C         20.91241        8.42147       -8.43665
C         20.92538        8.12018       -6.91843
C         19.55725        9.02787       -8.86272
C         20.77654        9.35373       -6.02789
H         23.31971        7.23113       -9.04867
H         20.40774        6.38102       -8.95012
H         21.71436        9.15721       -8.66967
H         21.89110        7.64381       -6.64411
H         20.10603        7.40922       -6.69011
H         19.54857        9.25468       -9.94871
H         18.72517        8.32605       -8.63967
H         19.36611        9.98981       -8.34794
H         21.59695       10.07363       -6.23184
H         19.79765        9.85120       -6.17544
H         20.83353        9.04249       -4.96318
N         20.15504        6.76245      -11.46445
C         20.03751        6.89560      -12.91052
C         18.89070        7.82270      -13.25839
O         18.24448        8.33498      -12.35753
C         19.84987        5.49885      -13.53287
O         18.66859        4.91073      -13.05623
H         19.41055        6.24509      -10.97274
H         20.95768        7.34960      -13.33913
H         20.72394        4.86758      -13.25761
H         19.80155        5.57417      -14.64021
H         18.64764        3.98814      -13.42109
N         18.59491        8.11078      -14.55382
C         17.50632        8.99831      -14.95246
C         16.16758        8.47657      -14.46496
O         15.42738        9.22553      -13.84482
C         17.47524        9.14416      -16.47654
H         19.17493        7.68132      -15.29238
H         17.68198       10.01443      -14.53123
H         18.44200        9.55989      -16.83306
H         17.30487        8.16240      -16.96736
H         16.66500        9.84337      -16.77538
N         15.81290        7.18005      -14.69099
C         14.54784        6.59430      -14.25589
C         14.31782        6.79477      -12.77254
O         13.26162        7.28643      -12.39807
C         14.53254        5.09244      -14.57070
H         16.49165        6.57425      -15.17756
H         13.71100        7.06816      -14.81547
H         15.35445        4.56854      -14.03532
H         13.56424        4.64453      -14.25994
H         14.66060        4.92946      -15.66149
N         15.27615        6.44796      -11.87158
C         15.10800        6.58817      -10.42802
C         14.78293        8.02862      -10.06293
O         13.78907        8.25425       -9.38669
C         16.34302        6.05496       -9.66194
C         16.58129        4.55702       -9.96516
C         17.70516        3.96703       -9.16766
O         17.49280        2.87055       -8.41836
O         18.82662        4.43691       -9.23534
H         16.16452        6.08147      -12.24209
H         14.25367        5.96241      -10.10891
H         16.15599        6.16932       -8.57082
H         17.24547        6.64703       -9.92618
H         16.83203        4.41372      -11.03364
H         15.65531        3.98136       -9.74948
N         15.53317        9.05592      -10.54565
C         15.23064       10.45520      -10.32234
H         14.35399       10.60018       -9.65755
H         16.11050       10.95626       -9.86951
H         15.00916       10.93893      -11.29861
H         16.33209        8.84286      -11.14739
Ca        19.80897        1.53020       -6.76889
O         19.86219        0.60253      -10.24555
H         20.79359        0.26699      -10.27166
H         19.31187       -0.20338      -10.07877
O         21.27198        3.28855      -10.88160
H         20.33387        3.43229      -11.16193
H         21.65717        2.71438      -11.58941

Ca 1.0



