%chk=holoCaM-CaMKII.loop2.water2.frame426.chk
%nprocshared=20
%mem=10GB
%nosave
#b3lyp/svp scf=(tight,noincore,xqc) Test 
#IOP(5/87=12) Density=Current Pop=(MK,readradii) iop(6/33=2) iop(6/42=6)

holoCaM-CaMKII.loop2.water2.frame426 

   -2  1 
C         63.24055       62.49026       20.71224
C         63.53940       61.76665       19.42728
O         64.55359       62.04457       18.80890
H         62.29885       62.12383       21.17600
H         64.06474       62.31217       21.43620
H         63.14302       63.57877       20.52814
N         62.70007       60.79540       18.98269
C         62.96573       59.94308       17.82858
C         63.04899       60.69424       16.50384
O         62.12033       61.41311       16.16321
C         61.86408       58.87479       17.73626
C         62.13711       57.93536       16.61060
O         63.31745       57.29157       16.55940
O         61.31306       57.78447       15.72325
H         61.85333       60.60469       19.54162
H         63.92259       59.40756       18.00929
H         60.86923       59.35373       17.60060
H         61.84507       58.28850       18.67803
N         64.11221       60.47981       15.66731
C         64.23765       61.05279       14.33116
C         64.35415       60.00154       13.21558
O         64.29776       60.41307       12.06460
C         65.47658       61.95511       14.28961
H         64.86379       59.86541       15.99056
H         63.34408       61.67466       14.10829
H         65.40176       62.74752       15.06352
H         66.39492       61.35716       14.48359
H         65.57658       62.44287       13.29613
N         64.58304       58.66679       13.44578
C         64.79589       57.69378       12.36005
C         63.93387       56.42924       12.45028
O         64.01143       55.61540       11.53945
C         66.29408       57.32253       12.26423
C         66.89213       56.65361       13.47802
O         68.06647       56.32288       13.45530
O         66.16835       56.41885       14.58823
H         64.70243       58.34663       14.41320
H         64.53900       58.16331       11.38505
H         66.87130       58.25121       12.06529
H         66.43623       56.64765       11.39098
N         63.08896       56.18952       13.49053
C         62.22025       55.02193       13.58128
C         62.92467       53.68188       13.74924
O         62.22234       52.68055       13.75251
H         63.00656       56.89262       14.22334
H         61.58870       54.98577       12.66692
H         61.54097       55.14352       14.45311
N         64.27835       53.55696       13.88512
C         64.94730       52.25376       13.94510
C         64.56417       51.38046       15.14534
O         64.87217       50.19709       15.10907
C         66.48759       52.40501       13.88422
C         67.10167       53.18876       15.02379
N         68.44585       53.25776       15.14188
O         66.39978       53.76468       15.83942
H         64.85659       54.40457       13.87899
H         64.63750       51.69808       13.03208
H         66.77748       52.90306       12.93419
H         66.93280       51.38663       13.88312
H         69.05993       52.78073       14.46730
H         68.87504       53.77108       15.92260
N         63.94362       51.88246       16.24897
C         63.54687       51.07600       17.39884
C         64.33565       51.40212       18.65563
O         63.94797       50.93586       19.71719
H         63.75200       52.88809       16.29190
H         63.65998       49.98645       17.21000
H         62.46831       51.26949       17.58163
N         65.48367       52.13667       18.60770
C         66.31012       52.46358       19.76549
C         66.48231       54.00140       19.84720
O         67.05100       54.44250       18.65017
C         67.68559       51.74143       19.65738
C         67.53267       50.22033       19.65774
O         68.36461       52.11650       18.48335
H         65.82485       52.44730       17.69496
H         65.82424       52.12298       20.70648
H         68.29724       51.99116       20.55772
H         69.06368       52.77422       18.73877
H         67.02460       49.88298       20.58549
H         66.94692       49.88304       18.77650
H         68.53652       49.74591       19.61210
N         67.31764       54.38024       21.00138
C         67.62698       55.82856       21.11914
C         69.05462       56.03633       20.62704
O         69.93902       55.31639       21.06921
C         67.43039       56.37213       22.57927
C         65.92596       56.29743       22.98842
C         67.92460       57.83584       22.67455
C         65.62034       56.79830       24.40278
H         66.90713       53.97767       21.87217
H         66.93894       56.44214       20.50975
H         68.03839       55.75983       23.28105
H         65.56410       55.25206       22.94387
H         65.31635       56.89373       22.27872
H         67.34433       58.49360       21.99137
H         67.84666       58.22702       23.70758
H         68.99908       57.91129       22.41578
H         65.83237       57.88127       24.50879
H         64.53783       56.66168       24.61236
H         66.20427       56.22603       25.15289
N         69.35668       57.04593       19.75367
C         70.70732       57.30340       19.24673
C         71.29525       58.54434       19.89573
O         70.62614       59.17335       20.69747
C         70.68739       57.47479       17.71355
C         70.14203       56.27385       17.00413
O         68.86258       55.91000       17.18917
O         70.84207       55.64622       16.22597
H         68.60787       57.69405       19.47177
H         71.38343       56.46059       19.50968
H         71.72146       57.65624       17.35065
H         70.06657       58.35566       17.43880
N         72.58212       58.92167       19.63317
C         73.22997       60.04009       20.30982
C         72.58735       61.38540       19.97283
O         72.27238       62.10245       20.91309
C         74.75087       60.08660       20.02017
C         75.45555       60.98251       21.01074
C         75.55676       60.58204       22.35548
C         76.01516       62.20903       20.61605
C         76.20587       61.39207       23.28854
C         76.65551       63.02328       21.55763
C         76.75242       62.61388       22.89132
H         73.14328       58.34825       18.98654
H         73.13285       59.84706       21.40176
H         74.94845       60.42670       18.98941
H         75.19976       59.07422       20.11511
H         75.14086       59.63535       22.67860
H         75.94461       62.54097       19.58779
H         76.28392       61.07051       24.31922
H         77.07709       63.97259       21.25466
H         77.25120       63.24187       23.61785
N         72.36269       61.82280       18.68649
C         71.75680       63.11220       18.35105
C         70.46789       63.35599       19.10555
O         70.25308       64.42654       19.65369
C         71.42194       62.97722       16.85241
C         72.51638       62.06757       16.36233
C         72.58713       61.03753       17.48315
H         72.49763       63.92485       18.52047
H         70.47828       62.40061       16.70942
H         71.31037       63.94174       16.31305
H         72.35370       61.63493       15.35146
H         73.46262       62.65299       16.36087
H         71.77164       60.28600       17.40066
H         73.56564       60.53638       17.41757
N         69.56781       62.34376       19.15515
C         68.25489       62.39323       19.77595
C         68.39951       62.68486       21.25761
O         67.77688       63.61915       21.74226
C         67.53821       61.04710       19.51487
C         67.37623       60.78559       17.98969
C         66.87122       59.41439       17.68707
O         66.99460       58.96029       16.56018
O         66.35431       58.64453       18.65304
H         69.86762       61.45752       18.72858
H         67.63857       63.19001       19.30218
H         66.54508       61.03521       20.01004
H         68.14807       60.22944       19.95986
H         68.35575       60.83084       17.48156
H         66.73557       61.54832       17.50010
N         69.25908       61.95539       22.02184
C         69.51387       62.20600       23.42480
H         70.58205       62.48450       23.55527
H         68.88618       63.02603       23.83005
H         69.31528       61.28146       24.00538
H         69.79963       61.20529       21.57971
Ca        66.17572       56.46966       18.21541
O         63.43680       54.86117       17.76913
H         62.91244       54.88383       16.92865
H         62.83470       54.42159       18.41826
O         63.89902       57.09159       20.02620
H         64.47075       57.87304       20.23063
H         63.07761       57.24589       20.55535

Ca 1.0



