%chk=holoCaM.loop4.water3.frame185.chk
%nprocshared=20
%mem=10GB
%nosave
#b3lyp/svp scf=(tight,noincore,xqc) Test 
#IOP(5/87=12) Density=Current Pop=(MK,readradii) iop(6/33=2) iop(6/42=6)

holoCaM.loop4.water3.frame185 

   -3  1 
C         15.21536       61.05314       71.08970
C         15.57069       61.47833       69.69860
O         16.40262       60.82894       69.08036
H         14.14127       60.77639       71.12338
H         15.81778       60.16807       71.39133
H         15.41172       61.87869       71.80376
N         14.98983       62.57954       69.13803
C         15.28921       62.99154       67.77206
C         14.83082       64.42646       67.51935
O         13.64986       64.71242       67.66082
C         14.60603       62.02272       66.77867
C         15.10167       62.19203       65.37300
O         14.60035       61.54476       64.46835
O         16.14703       62.99512       65.11259
H         14.34209       63.14215       69.71134
H         16.39323       62.94595       67.64490
H         13.50575       62.18092       66.81930
H         14.80373       60.96666       67.05526
N         15.73682       65.38398       67.16109
C         15.41884       66.79782       66.97168
C         15.77267       67.29791       65.55824
O         15.68750       68.49839       65.33951
C         16.09408       67.64829       68.10289
C         17.64403       67.61881       68.06392
C         15.56163       67.19078       69.47842
C         18.29722       68.56227       69.08229
H         16.71770       65.10757       67.05278
H         14.32657       66.97174       67.08637
H         15.77245       68.70334       67.95695
H         17.98574       67.93682       67.05787
H         18.01293       66.59473       68.25602
H         14.45225       67.22881       69.49279
H         15.88427       66.15166       69.70448
H         15.91234       67.85176       70.29543
H         18.07389       68.25773       70.12459
H         19.40039       68.54233       68.97203
H         17.95392       69.60506       68.91798
N         16.11733       66.44972       64.53636
C         16.49555       66.92206       63.18973
C         16.47325       65.85813       62.05874
O         16.75345       66.24506       60.93198
C         17.89302       67.59166       63.25393
C         18.85157       66.67143       63.94450
O         18.97302       65.40223       63.53000
O         19.38250       67.01463       64.98829
H         16.12044       65.44976       64.73926
H         15.75032       67.67517       62.85159
H         17.83582       68.53544       63.83795
H         18.25691       67.85333       62.23725
N         16.10933       64.55041       62.22810
C         15.96900       63.59169       61.13271
C         17.24687       63.15580       60.42315
O         17.13040       62.36163       59.50033
H         15.81238       64.21465       63.14229
H         15.26386       64.01249       60.38435
H         15.50782       62.66426       61.53983
N         18.48664       63.60183       60.77283
C         19.71986       63.20844       60.08140
C         20.11428       61.73079       60.24181
O         21.14013       61.35591       59.68949
C         20.89896       64.12484       60.50261
C         21.28345       64.07090       61.95533
O         20.59103       63.32732       62.83386
O         22.22764       64.73562       62.34898
H         18.55314       64.29402       61.52061
H         19.57622       63.39799       58.99453
H         20.63876       65.17794       60.26076
H         21.79286       63.85305       59.90009
N         19.36742       60.82596       60.94103
C         19.73618       59.41911       61.06118
C         20.86483       59.15172       62.04465
O         21.22464       57.99294       62.19894
H         18.47572       61.11208       61.35781
H         19.97961       59.01185       60.05508
H         18.85857       58.85390       61.44270
N         21.43805       60.14868       62.77662
C         22.46139       59.94643       63.79662
C         21.96098       60.44467       65.14614
O         20.85551       60.96548       65.22627
C         23.73538       60.73466       63.42629
C         24.32848       60.32144       62.07596
C         25.64236       61.02438       61.83976
N         25.71204       62.37543       61.77785
O         26.66089       60.36192       61.70974
H         21.12260       61.10713       62.63037
H         22.71617       58.86795       63.89320
H         24.50974       60.55896       64.20287
H         23.50076       61.82218       63.41087
H         23.62232       60.56739       61.25411
H         24.49961       59.22250       62.07855
H         24.86844       62.95705       61.88298
H         26.61792       62.84404       61.62733
N         22.75499       60.34347       66.25099
C         22.40900       60.89287       67.55683
C         23.43051       61.95825       67.92390
O         24.62051       61.67472       67.87732
C         22.29019       59.76501       68.62839
C         23.60475       59.01966       68.91526
C         21.72373       60.32124       69.94541
H         23.67119       59.88130       66.15548
H         21.41087       61.36871       67.50946
H         21.55505       59.02100       68.24855
H         24.01187       58.55665       67.99489
H         24.36540       59.69684       69.35577
H         23.42129       58.20507       69.64833
H         21.58512       59.50662       70.68737
H         22.40150       61.08328       70.38295
H         20.73015       60.77930       69.76810
N         23.03807       63.20022       68.33321
C         23.98905       64.22754       68.75460
C         24.03135       64.29555       70.27121
O         23.30606       63.55903       70.91859
C         23.67153       65.58128       68.07470
C         22.35668       66.18436       68.50608
N         21.36117       66.40072       67.61863
O         22.19787       66.50628       69.67080
H         22.03043       63.39450       68.43650
H         25.01655       63.94483       68.43796
H         23.68000       65.42789       66.97512
H         24.47067       66.31667       68.30623
H         21.47025       66.16132       66.62694
H         20.47152       66.81388       67.92590
N         24.89979       65.12403       70.91142
C         25.04049       65.15789       72.36621
C         23.73336       65.49828       73.06726
O         23.32992       64.76115       73.95569
C         26.17916       66.10178       72.82860
C         26.00744       67.57085       72.50681
C         25.48284       68.44716       73.47337
C         26.40978       68.09077       71.26352
C         25.34736       69.81038       73.19520
C         26.27807       69.45480       70.98963
C         25.74664       70.31887       71.95127
O         25.63260       71.63297       71.67235
H         25.50874       65.71415       70.33274
H         25.34979       64.14316       72.70606
H         27.15572       65.75662       72.42496
H         26.26150       65.98944       73.93269
H         25.17337       68.07390       74.44171
H         26.84405       67.45164       70.50745
H         24.93726       70.47044       73.94894
H         26.59800       69.84144       70.03004
H         25.27989       72.26648       72.31333
N         23.01517       66.59432       72.70416
C         21.77687       67.02053       73.35408
C         20.74688       65.89620       73.40251
O         20.19910       65.64736       74.46742
C         21.25197       68.28694       72.64000
C         20.04359       68.92628       73.33524
C         19.71152       70.24952       72.70206
O         19.39976       70.31232       71.52392
O         19.76979       71.37890       73.43414
H         23.37330       67.15629       71.91709
H         22.01233       67.31382       74.40194
H         21.00238       68.06060       71.57999
H         22.07718       69.03534       72.65229
H         20.28751       69.10180       74.40548
H         19.16253       68.25252       73.27570
N         20.48706       65.13247       72.30611
C         19.55227       64.00469       72.30601
C         19.96390       62.96641       73.33384
O         19.17571       62.66143       74.21739
C         19.50503       63.32131       70.92335
C         19.02505       64.26005       69.81822
C         19.10567       63.63523       68.46280
O         18.96442       64.44490       67.41312
O         19.36513       62.45621       68.29782
H         21.01186       65.34731       71.45128
H         18.52986       64.37489       72.54551
H         18.82657       62.43954       70.95980
H         20.52693       62.97455       70.65951
H         19.68099       65.14950       69.77898
H         17.98668       64.60754       70.00636
N         21.19148       62.37993       73.26706
C         21.66149       61.36826       74.18725
H         22.57321       61.73902       74.70077
H         20.90157       61.10577       74.95111
H         21.92186       60.45214       73.61574
H         21.83827       62.66159       72.52448
Ca        19.13784       63.99947       65.24946
O         22.06031       63.90524       65.37028
H         21.63178       64.67937       64.92722
H         23.00495       63.95742       65.08343
O         17.56656       60.40912       63.66878
H         17.60483       61.39719       63.61466
H         16.87298       60.15062       63.01156
O         18.12690       60.73233       66.45286
H         18.64687       59.89234       66.51034
H         17.18622       60.44645       66.55747

Ca 1.0



