%chk=holoCaM-CaMKII.loop4.water2.frame94.chk
%nprocshared=20
%mem=10GB
%nosave
#b3lyp/svp scf=(tight,noincore,xqc) Test 
#IOP(5/87=12) Density=Current Pop=(MK,readradii) iop(6/33=2) iop(6/42=6)

holoCaM-CaMKII.loop4.water2.frame94 

   -3  1 
C         31.09530       38.93401       39.76079
C         32.30117       38.04513       39.73160
O         33.30336       38.36104       40.35539
H         30.23126       38.37345       40.17550
H         31.27953       39.83339       40.38422
H         30.85271       39.25787       38.72582
N         32.26508       36.89909       39.00353
C         33.38917       35.97885       38.88633
C         34.56818       36.69139       38.23672
O         34.38941       37.26528       37.17081
C         32.94640       34.76700       38.04211
C         33.95994       33.66976       37.97082
O         33.70839       32.68084       37.30996
O         35.12080       33.73910       38.64323
H         31.38760       36.67737       38.50534
H         33.66020       35.60724       39.90091
H         32.70210       35.10214       37.01084
H         32.03091       34.32407       38.49225
N         35.80551       36.68166       38.81582
C         36.94832       37.40696       38.26578
C         37.87106       36.43910       37.53415
O         38.03531       36.59051       36.33119
C         37.69400       38.19909       39.38940
C         36.76243       39.11264       40.23052
C         38.88873       38.99287       38.83144
C         36.08269       40.24227       39.45485
H         35.94516       36.12146       39.66795
H         36.59357       38.14140       37.50896
H         38.11486       37.46839       40.10769
H         37.35715       39.56820       41.05334
H         35.97693       38.49145       40.71024
H         39.61775       38.31147       38.34545
H         38.56141       39.74208       38.08228
H         39.42018       39.51363       39.65707
H         36.83231       40.93294       39.01797
H         35.43360       39.83826       38.65231
H         35.44754       40.82951       40.15181
N         38.52784       35.43728       38.18948
C         39.47195       34.53400       37.52008
C         38.81075       33.56951       36.53713
O         39.53180       32.85171       35.85792
C         40.31302       33.76951       38.56804
C         39.51293       32.86314       39.46483
O         40.02759       32.41618       40.47668
O         38.22405       32.58041       39.19728
H         38.40336       35.36229       39.20862
H         40.19012       35.16728       36.95228
H         40.79295       34.54354       39.20786
H         41.12498       33.18343       38.08687
N         37.45665       33.49537       36.39791
C         36.79722       32.63827       35.43240
C         36.99268       31.16211       35.69508
O         37.49923       30.48133       34.81482
H         36.85177       34.10229       36.96216
H         37.15747       32.90125       34.41352
H         35.70444       32.83679       35.45828
N         36.54248       30.58417       36.84925
C         36.53660       29.13357       37.06216
C         35.11154       28.57534       37.13102
O         34.96580       27.36281       37.21010
C         37.38157       28.74847       38.29579
C         36.87194       29.29747       39.60087
O         35.76864       28.98555       40.01645
O         37.66077       30.08862       40.35058
H         36.13334       31.19047       37.57653
H         37.00798       28.62572       36.19292
H         38.42108       29.10821       38.13386
H         37.41891       27.64042       38.37905
N         34.01684       29.38981       37.08139
C         32.63847       28.93526       37.05357
C         31.84474       29.38304       38.26582
O         30.63350       29.23566       38.23963
H         34.14414       30.40197       37.03063
H         32.55845       27.82921       36.98106
H         32.17088       29.36543       36.14141
N         32.45853       29.84516       39.39751
C         31.73657       30.15444       40.63307
C         32.16824       31.50328       41.19312
O         33.06336       32.12607       40.64544
C         32.02088       29.02899       41.65036
C         31.43568       27.68805       41.16740
C         31.78196       26.55471       42.09241
N         33.06839       26.16255       42.24558
O         30.89252       25.96488       42.68722
H         33.48453       29.88093       39.43059
H         30.64073       30.20210       40.45287
H         31.56022       29.26589       42.63378
H         33.12016       28.94462       41.79170
H         31.82233       27.41982       40.16251
H         30.33009       27.79545       41.09811
H         33.82756       26.63293       41.73103
H         33.30520       25.37327       42.86430
N         31.54596       32.01455       42.30229
C         31.92376       33.28455       42.91874
C         32.30495       33.02457       44.36923
O         31.45765       32.61780       45.15027
C         30.75787       34.30907       42.82146
C         31.15549       35.66946       43.42168
C         30.32627       34.51723       41.36184
H         30.76814       31.48708       42.72334
H         32.79611       33.72196       42.38553
H         29.88029       33.91788       43.38293
H         32.02062       36.10147       42.87403
H         30.30550       36.38196       43.35781
H         31.42492       35.56869       44.49183
H         31.17059       34.91027       40.75913
H         29.97810       33.56319       40.91347
H         29.48326       35.23909       41.30981
N         33.58812       33.21773       44.78634
C         34.03436       32.97306       46.15796
C         33.45046       34.02280       47.10911
O         32.83376       34.96990       46.64068
C         35.58817       32.99892       46.16574
C         36.23446       32.52208       47.43926
N         36.04738       31.25462       47.87427
O         36.96497       33.27393       48.06585
H         34.28098       33.50237       44.08296
H         33.69479       31.95506       46.44763
H         35.93455       34.02560       45.92189
H         35.96029       32.32541       45.36436
H         35.45718       30.59667       47.34516
H         36.50777       30.92450       48.73526
N         33.62392       33.93699       48.46162
C         33.20122       34.99374       49.38450
C         33.94420       36.27458       49.06167
O         33.33450       37.33175       49.00490
C         33.50096       34.61116       50.85185
C         33.07129       35.71621       51.79945
C         31.71837       36.08980       51.89450
C         34.02303       36.39961       52.57708
C         31.32746       37.12947       52.74371
C         33.62912       37.44038       53.42538
C         32.27890       37.80974       53.50960
O         31.88517       38.81480       54.31808
H         34.10403       33.11138       48.84783
H         32.10459       35.15346       49.28938
H         34.59198       34.41845       50.95728
H         32.96492       33.67546       51.11865
H         30.96463       35.58128       51.30749
H         35.07192       36.13725       52.51951
H         30.28306       37.40973       52.80266
H         34.37434       37.96233       54.01263
H         32.51086       39.31532       54.86105
N         35.28087       36.22362       48.81838
C         36.09700       37.36763       48.44345
C         35.51683       38.04152       47.20755
O         35.27717       39.24044       47.22567
C         37.54060       36.86647       48.15316
C         38.57325       37.98230       47.95174
C         38.81960       38.72810       49.23257
O         38.62007       39.92967       49.29643
O         39.27791       38.06980       50.31603
H         35.73527       35.30147       48.87065
H         36.12233       38.08276       49.29448
H         37.52773       36.22204       47.24648
H         37.89479       36.22801       48.99264
H         38.24598       38.66860       47.14126
H         39.53709       37.52214       47.64324
N         35.27877       37.30302       46.08862
C         34.83274       37.86085       44.81341
C         33.39252       38.36208       44.82936
O         32.98279       38.95829       43.84259
C         35.01061       36.80447       43.70055
C         36.48946       36.39273       43.59020
C         36.71292       35.36639       42.53664
O         37.46195       35.61892       41.61060
O         36.15616       34.14388       42.61076
H         35.48450       36.29667       46.14217
H         35.49270       38.72264       44.56623
H         34.68460       37.22590       42.72324
H         34.37831       35.91836       43.92656
H         36.87511       35.96263       44.53375
H         37.09063       37.29854       43.35357
N         32.56381       38.15588       45.89095
C         31.19729       38.63370       45.95483
H         30.51017       37.76944       46.07005
H         31.08510       39.29823       46.83770
H         30.90111       39.20295       45.04939
H         32.89898       37.62496       46.69746
Ca        36.70666       32.98802       40.78468
O         35.25839       30.80857       43.00077
H         36.08268       30.59211       43.50457
H         34.57772       30.18932       43.36553
O         38.47718       32.35324       43.58695
H         38.52855       31.94573       42.68652
H         38.57355       31.58862       44.20818

Ca 1.0



