%chk=holoCaM-CaMKII.loop3.water2.frame152.chk
%nprocshared=20
%mem=10GB
%nosave
#b3lyp/svp scf=(tight,noincore,xqc) Test 
#IOP(5/87=12) Density=Current Pop=(MK,readradii) iop(6/33=2) iop(6/42=6)

holoCaM-CaMKII.loop3.water2.frame152 

   0  1 
C          9.22968       89.84606       62.72381
C         10.16191       89.37798       63.80230
O         10.24254       90.02911       64.83387
H          8.20210       89.92526       63.13536
H          9.55329       90.84082       62.35212
H          9.21244       89.13822       61.86811
N         10.92509       88.26457       63.61686
C         11.85297       87.74405       64.61050
C         13.25524       88.21159       64.25282
O         14.10508       87.41320       63.88081
C         11.71020       86.20707       64.66328
C         12.49161       85.57433       65.77692
O         12.46972       84.36417       65.90926
O         13.19202       86.32200       66.64679
H         10.87758       87.78021       62.70675
H         11.60791       88.14357       65.62070
H         12.03482       85.77153       63.69288
H         10.64568       85.93956       64.81811
N         13.54767       89.54037       64.33906
C         14.82246       90.12822       63.93340
C         16.01319       89.70872       64.79795
O         17.11113       90.14781       64.48253
C         14.72274       91.67494       63.91943
C         13.67247       92.18598       62.91398
C         13.67060       93.72057       62.84789
C         12.69374       94.27803       61.79674
N         11.29348       94.00344       62.12599
H         12.80146       90.16898       64.66820
H         15.03662       89.80682       62.88978
H         15.70714       92.09152       63.61084
H         14.48982       92.05070       64.94066
H         12.66639       91.82551       63.20379
H         13.91637       91.78694       61.90511
H         14.69209       94.05729       62.56504
H         13.42808       94.14750       63.84545
H         12.93612       93.85825       60.79505
H         12.83504       95.38038       61.74634
H         10.68327       94.45675       61.40798
H         11.09873       92.97793       62.11410
H         11.06014       94.40248       63.06416
N         15.90860       88.86008       65.86509
C         17.06012       88.44198       66.66143
C         17.42610       87.00628       66.31296
O         18.54649       86.79026       65.87103
C         16.83620       88.76282       68.15828
C         15.62169       88.14892       68.80131
O         15.55576       86.82533       69.03266
O         14.71492       88.86939       69.18701
H         14.99483       88.46290       66.11709
H         17.95679       89.04276       66.38781
H         16.72779       89.86893       68.22561
H         17.73400       88.48241       68.74922
N         16.52369       85.99108       66.39890
C         16.78180       84.64212       65.91806
C         16.66054       83.61650       67.01418
O         17.60303       82.86670       67.22674
H         15.58368       86.19486       66.74694
H         17.78714       84.55542       65.45151
H         16.03236       84.40779       65.13202
N         15.51395       83.51237       67.74021
C         15.29593       82.49656       68.76411
C         14.06167       81.65076       68.46512
O         13.71215       80.82762       69.29846
C         15.26387       83.15012       70.16339
C         14.17389       84.15538       70.42920
N         14.15015       84.79920       71.61862
O         13.32070       84.39988       69.59156
H         14.75629       84.18518       67.55695
H         16.15348       81.78913       68.80512
H         16.23883       83.66487       70.30905
H         15.18860       82.35135       70.93344
H         14.86559       84.60507       72.33486
H         13.42631       85.49952       71.82503
N         13.39990       81.73059       67.27010
C         12.28277       80.86447       66.92893
C         10.94014       81.32516       67.46254
O          9.98593       80.57965       67.28929
H         13.77328       82.32730       66.52039
H         12.50784       79.82820       67.26146
H         12.17613       80.82950       65.82244
N         10.74897       82.54900       68.04126
C          9.41800       83.00651       68.45153
C          9.34219       84.50993       68.67082
O         10.36386       85.17484       68.74217
C          8.90279       82.26113       69.71376
C          9.80387       82.42925       70.92523
C         11.07420       81.83081       70.95290
C          9.38039       83.16457       72.04724
C         11.91224       81.97452       72.06018
C         10.22194       83.30925       73.15910
C         11.49343       82.71648       73.16551
O         12.31771       82.84805       74.22467
H         11.54916       83.19163       68.10778
H          8.73184       82.81823       67.59547
H          8.78679       81.17612       69.51277
H          7.88665       82.64849       69.94502
H         11.41406       81.23869       70.12181
H          8.40543       83.63472       72.06103
H         12.88814       81.50480       72.05867
H          9.88745       83.88489       74.01284
H         12.07085       83.35309       75.01214
N          8.11845       85.11668       68.71843
C          7.92839       86.55151       68.91733
C          6.93067       86.82611       70.03381
O          6.25106       85.92073       70.49835
C          7.46155       87.24909       67.59770
C          6.16803       86.61104       67.02098
C          8.60508       87.24405       66.57202
C          5.58605       87.36865       65.82465
H          7.28063       84.53379       68.56879
H          8.88825       87.01617       69.23277
H          7.24590       88.31291       67.82698
H          5.38474       86.60169       67.80829
H          6.36320       85.56253       66.70932
H          8.33987       87.82463       65.66609
H          9.50511       87.72829       67.00628
H          8.85763       86.20587       66.27801
H          5.34801       88.41505       66.11025
H          6.28088       87.36956       64.96102
H          4.64948       86.86989       65.49612
N          6.80299       88.09792       70.50125
C          5.82504       88.53830       71.48847
C          5.01256       89.69369       70.91049
O          5.21765       90.04585       69.75967
C          6.56755       88.95455       72.76828
O          7.45460       90.01146       72.50631
H          7.44848       88.81119       70.13491
H          5.12779       87.71521       71.75882
H          7.11008       88.05833       73.15496
H          5.85559       89.26700       73.56039
H          8.32819       89.77002       72.91118
N          4.08005       90.34945       71.65607
C          3.33083       91.50361       71.15750
C          4.26316       92.63515       70.75661
O          4.14052       93.14233       69.65049
C          2.35591       92.00797       72.22559
H          3.90983       90.02943       72.62143
H          2.72223       91.20101       70.27562
H          1.77588       92.87093       71.83182
H          1.64061       91.20182       72.49310
H          2.89772       92.32791       73.14093
N          5.24289       93.05539       71.60584
C          6.18110       94.13391       71.30298
C          6.88220       93.91861       69.97514
O          6.89281       94.82628       69.15530
C          7.23009       94.23998       72.42023
H          5.34036       92.56109       72.50679
H          5.63221       95.10084       71.26167
H          7.93597       95.07238       72.21085
H          6.73430       94.44023       73.39374
H          7.81147       93.29594       72.50784
N          7.48364       92.73161       69.69731
C          8.22150       92.47192       68.46259
C          7.32127       92.64538       67.24961
O          7.63142       93.47148       66.40264
C          8.85036       91.06097       68.49240
C          9.85105       90.92576       69.65705
C         10.45693       89.56070       69.74643
O         11.22787       89.08666       68.75362
O         10.30094       88.89129       70.75542
H          7.40318       91.98769       70.40513
H          9.05936       93.20115       68.38436
H          9.38446       90.87175       67.53524
H          8.04564       90.30979       68.59248
H          9.35254       91.12950       70.62535
H         10.66843       91.66669       69.53340
N          6.17652       91.91992       67.11648
C          5.25361       92.06377       66.00824
H          4.26348       92.38505       66.39648
H          5.59550       92.81297       65.26398
H          5.13578       91.08598       65.49673
H          5.92963       91.24156       67.84383
Ca        12.31182       87.15880       69.17150
O         13.47002       88.25569       71.91982
H         13.29087       89.22630       71.84227
H         14.45772       88.18362       71.92285
O         10.73955       86.10176       71.68374
H         11.16565       86.10290       72.57718
H         11.13812       85.32257       71.22171

Ca 1.0



