%chk=holoCaM-CaMKII.loop3.water1.frame392.chk
%nprocshared=20
%mem=10GB
%nosave
#b3lyp/svp scf=(tight,noincore,xqc) Test 
#IOP(5/87=12) Density=Current Pop=(MK,readradii) iop(6/33=2) iop(6/42=6)

holoCaM-CaMKII.loop3.water1.frame392 

   0  1 
C         61.92180       92.20337       92.64423
C         62.63900       93.18890       93.51461
O         62.26029       93.33401       94.66861
H         60.85599       92.49792       92.55290
H         62.37011       92.15691       91.63005
H         61.98428       91.19511       93.10570
N         63.70529       93.89311       93.03827
C         64.45466       94.81868       93.87492
C         63.55731       95.97721       94.29653
O         63.11666       96.74938       93.45687
C         65.72401       95.28443       93.14447
C         66.68481       96.03252       94.01833
O         67.73067       96.42096       93.53387
O         66.43909       96.24513       95.32649
H         64.01602       93.72711       92.06829
H         64.78999       94.24561       94.76332
H         65.44813       95.90551       92.26518
H         66.27020       94.38565       92.78045
N         63.18088       96.08042       95.59811
C         62.18888       97.02266       96.10905
C         62.68154       98.46302       96.08373
O         61.98761       99.31997       95.55582
C         61.82494       96.60220       97.54767
C         60.60826       97.33368       98.12444
C         60.32589       96.80667       99.53739
C         59.06218       97.42649      100.13971
N         58.84454       96.92720      101.49767
H         63.54947       95.36908       96.24613
H         61.25964       96.92019       95.50324
H         62.70291       96.74007       98.21389
H         61.56694       95.51880       97.52788
H         59.72819       97.13974       97.47152
H         60.79329       98.42880       98.16327
H         61.19844       97.03689      100.18751
H         60.19144       95.70232       99.50177
H         58.18571       97.16381       99.50563
H         59.16052       98.53395      100.16626
H         59.64449       97.20496      102.11203
H         57.96419       97.34058      101.88038
H         58.75456       95.88479      101.49054
N         63.87643       98.79224       96.65102
C         64.39907      100.15978       96.75648
C         65.52915      100.43158       95.77624
O         66.02551      101.55060       95.76969
C         64.85263      100.45987       98.20869
C         65.72371       99.36690       98.75844
O         66.77657       98.88851       98.06463
O         65.35198       98.76483       99.75452
H         64.45826       98.01714       97.00196
H         63.61417      100.90102       96.49000
H         63.95072      100.53134       98.85700
H         65.37716      101.43707       98.26222
N         65.94932       99.50365       94.87391
C         66.93548       99.80319       93.85352
C         68.29813      100.11641       94.42176
O         68.80307      101.19959       94.16098
H         65.51238       98.57356       94.85063
H         66.56954      100.65648       93.23929
H         67.03920       98.93090       93.17651
N         68.97665       99.18954       95.15933
C         70.35796       99.38253       95.60561
C         71.32105       98.37973       94.96854
O         72.51523       98.51045       95.19929
C         70.47685       99.32912       97.14782
C         70.16840       97.99061       97.78458
N         70.40692       97.80275       99.10099
O         69.72843       97.06527       97.12365
H         68.50227       98.29948       95.36727
H         70.71154      100.38955       95.29314
H         69.82858      100.10683       97.60550
H         71.53034       99.57693       97.40411
H         70.80078       98.55837       99.67932
H         70.22596       96.88631       99.53451
N         70.88928       97.35252       94.17755
C         71.77553       96.37833       93.56129
C         71.56734       94.96441       94.07759
O         72.27443       94.08805       93.60046
H         69.89108       97.24046       93.98987
H         72.84015       96.63627       93.74336
H         71.60896       96.39817       92.46290
N         70.65738       94.65031       95.05168
C         70.52053       93.29552       95.59688
C         69.31310       93.13083       96.52028
O         68.66860       94.11086       96.87186
C         71.80068       92.85206       96.35699
C         72.16584       93.75394       97.52292
C         72.00173       93.30578       98.84553
C         72.70308       95.03713       97.30495
C         72.36010       94.12500       99.92231
C         73.06777       95.84972       98.38094
C         72.89844       95.39913       99.69203
O         73.26029       96.19518      100.71847
H         70.04069       95.39024       95.40408
H         70.33632       92.61069       94.73976
H         72.67657       92.78592       95.68049
H         71.63238       91.81780       96.72512
H         71.59176       92.32394       99.04585
H         72.86513       95.41176       96.30692
H         72.22401       93.76659      100.93472
H         73.48881       96.83007       98.19345
H         73.16922       95.91968      101.64163
N         68.92569       91.87336       96.90724
C         67.74942       91.61086       97.73639
C         68.05105       90.71755       98.93693
O         69.09559       90.08384       98.99733
C         66.60249       90.97315       96.88813
C         67.04527       89.63260       96.23536
C         66.10322       91.98249       95.84328
C         65.92813       88.90117       95.49057
H         69.45321       91.06587       96.54397
H         67.38320       92.56935       98.14656
H         65.74425       90.76650       97.56644
H         67.40711       88.94497       97.02926
H         67.87632       89.80570       95.51947
H         65.78757       92.91382       96.35776
H         66.89747       92.22714       95.10724
H         65.21663       91.59687       95.30047
H         66.32248       87.93963       95.09742
H         65.08284       88.68427       96.17667
H         65.56546       89.48984       94.62411
N         67.11939       90.62523       99.93017
C         67.16787       89.72173      101.07682
C         65.85982       88.92545      101.15607
O         65.02127       89.07465      100.27908
C         67.40689       90.53579      102.35823
O         66.36273       91.44424      102.58956
H         66.30510       91.24803       99.86977
H         68.01581       89.00854      100.97938
H         68.38805       91.06247      102.28563
H         67.49474       89.86502      103.23831
H         66.65965       92.32241      102.23482
N         65.61607       88.04844      102.17385
C         64.39587       87.24325      102.25223
C         63.13396       88.08083      102.40091
O         62.26592       87.96933      101.54570
C         64.47298       86.24455      103.41122
H         66.34155       87.91571      102.89413
H         64.31685       86.64267      101.31729
H         64.56652       86.76720      104.38617
H         63.55631       85.61484      103.42894
H         65.34973       85.57742      103.27623
N         62.93308       88.90553      103.47486
C         61.67711       89.63606      103.66635
C         61.38942       90.59881      102.52948
O         60.24290       90.99141      102.36057
C         61.67780       90.40374      104.99345
H         63.67500       88.98453      104.18692
H         60.85830       88.88331      103.69895
H         61.84239       89.70439      105.83990
H         62.48569       91.16781      104.99795
H         60.70346       90.91613      105.14838
N         62.39184       91.04520      101.72721
C         62.17880       91.93033      100.59367
C         61.41547       91.18721       99.51640
O         60.34684       91.63256       99.12320
C         63.55083       92.42599      100.11210
C         63.50347       93.55894       99.08572
C         64.85752       94.21319       98.94315
O         64.93225       95.40584       98.34396
O         65.83901       93.78661       99.52896
H         63.35881       90.76323      101.94762
H         61.61033       92.82518      100.93721
H         64.15640       91.58602       99.72442
H         64.04793       92.84069      101.01929
H         62.81881       94.34024       99.48039
H         63.11483       93.21235       98.10363
N         61.90053       90.00831       99.03270
C         61.21844       89.18606       98.05666
H         60.25761       89.63015       97.72528
H         61.87459       89.04430       97.17297
H         61.00914       88.19139       98.50638
H         62.79328       89.65050       99.39481
Ca        66.77333       96.69225       98.47644
O         68.19358       95.68116      100.95030
H         69.00311       95.12003      100.84820
H         68.53318       96.55650      101.26564

Ca 1.0



