%chk=holoCaM.loop3.water3.frame7.chk
%nprocshared=20
%mem=10GB
%nosave
#b3lyp/svp scf=(tight,noincore,xqc) Test 
#IOP(5/87=12) Density=Current Pop=(MK,readradii) iop(6/33=2) iop(6/42=6)

holoCaM.loop3.water3.frame7 

   0  1 
C         64.58718       43.22439       57.74351
C         63.29151       43.58178       57.09275
O         62.29028       43.70082       57.78621
H         65.32039       44.03894       57.56353
H         64.44957       43.10479       58.83956
H         64.96936       42.27590       57.31596
N         63.24017       43.80841       55.75070
C         62.01806       44.25589       55.11002
C         60.95423       43.16044       55.15971
O         61.14201       42.11374       54.55445
C         62.28438       44.69751       53.65928
C         61.11439       45.45706       53.12480
O         60.08755       45.75358       53.94386
O         61.13048       45.86953       51.98326
H         64.10845       43.73300       55.19791
H         61.69216       45.15968       55.67614
H         62.51043       43.81501       53.02159
H         63.15480       45.38758       53.62246
N         59.83946       43.32185       55.92607
C         58.86680       42.25808       56.16220
C         58.01083       41.97490       54.91918
O         58.15342       40.90911       54.33728
C         58.00868       42.63156       57.40158
C         57.18313       41.49537       58.02250
C         58.07881       40.46272       58.73608
C         57.28840       39.49179       59.62800
N         56.41873       38.60296       58.86024
H         59.76841       44.19015       56.47041
H         59.45772       41.35510       56.42735
H         57.33226       43.47150       57.15198
H         58.67826       43.01374       58.20455
H         56.51945       41.02853       57.26487
H         56.54447       41.96730       58.80148
H         58.76519       41.01415       59.41649
H         58.69609       39.89596       58.00833
H         56.68553       40.06896       60.36498
H         58.01558       38.87336       60.19995
H         56.99183       38.02802       58.20122
H         55.92546       37.96315       59.52436
H         55.70152       39.14858       58.33292
N         57.07064       42.87106       54.48309
C         56.18914       42.64741       53.32433
C         56.91452       42.77366       51.97347
O         56.28842       42.48897       50.96161
C         54.94440       43.59354       53.37357
C         55.31188       45.05116       53.36008
O         56.61323       45.34671       53.32903
O         54.46776       45.92641       53.45954
H         56.92767       43.71658       55.04836
H         55.78147       41.61507       53.40273
H         54.38793       43.39067       54.31476
H         54.26658       43.37686       52.52001
N         58.22208       43.16353       51.86924
C         58.96038       43.15001       50.61159
C         58.52527       44.18297       49.58372
O         58.08433       43.77998       48.51648
H         58.75484       43.39418       52.71891
H         58.87889       42.12820       50.17661
H         60.03774       43.32835       50.81566
N         58.70907       45.52452       49.79441
C         58.44294       46.54808       48.77035
C         59.69642       47.32816       48.34917
O         59.58782       48.14834       47.44744
C         57.37400       47.54864       49.26430
C         57.92249       48.53484       50.27478
N         57.89931       49.86667       50.03863
O         58.41533       48.12890       51.30747
H         59.07754       45.81847       50.70593
H         58.04038       46.05156       47.86118
H         56.51357       46.98921       49.69032
H         57.00019       48.12389       48.39028
H         57.49747       50.24693       49.17087
H         58.29060       50.52284       50.73140
N         60.89370       47.17481       48.98586
C         62.09256       47.93788       48.68069
C         62.57539       48.78550       49.85215
O         63.67770       49.30272       49.74619
H         60.98303       46.48411       49.73358
H         61.95516       48.61082       47.80621
H         62.88911       47.20898       48.41779
N         61.80841       49.03074       50.96431
C         62.26155       49.87351       52.07780
C         62.11308       49.18643       53.42514
O         61.44028       48.18034       53.53524
C         61.45576       51.18943       52.15218
C         61.76518       52.14773       51.03236
C         61.38062       51.88358       49.70798
C         62.44512       53.34381       51.32384
C         61.67978       52.79951       48.69381
C         62.74538       54.25306       50.31118
C         62.36381       53.98445       48.99079
O         62.64703       54.85765       48.00412
H         60.85446       48.65222       51.00804
H         63.33953       50.12077       51.96090
H         61.72163       51.69808       53.10433
H         60.36464       50.98777       52.19932
H         60.84250       50.97889       49.45833
H         62.75172       53.57328       52.33756
H         61.37746       52.58884       47.67624
H         63.27427       55.16527       50.55712
H         63.11804       55.68626       48.17409
N         62.71881       49.73733       54.51693
C         62.60231       49.23730       55.88318
C         62.10823       50.39065       56.74893
O         62.72488       51.44668       56.71402
C         63.99075       48.74920       56.39304
C         64.58793       47.67175       55.45051
C         63.86421       48.19454       57.83128
C         66.05763       47.36611       55.75052
H         63.31634       50.56516       54.37025
H         61.90218       48.37460       55.93802
H         64.67850       49.62390       56.39420
H         64.56759       48.03627       54.40240
H         63.98439       46.74009       55.50277
H         64.84598       47.89020       58.24234
H         63.45856       48.96088       58.52226
H         63.18448       47.31374       57.84890
H         66.19996       46.94618       56.76500
H         66.43849       46.62416       55.01797
H         66.66104       48.29480       55.65122
N         61.04215       50.25028       57.58807
C         60.57940       51.32441       58.46697
C         60.91097       50.99696       59.90834
O         61.40838       49.91340       60.17189
C         59.07159       51.55935       58.27441
O         58.32668       50.44123       58.68035
H         60.58678       49.33295       57.65832
H         61.10807       52.27130       58.22601
H         58.84965       51.81659       57.21296
H         58.74076       52.42793       58.88130
H         58.28378       49.82541       57.90536
N         60.71074       51.91518       60.89873
C         61.06494       51.64052       62.28878
C         60.20785       50.53791       62.88182
O         60.66741       49.86502       63.79453
C         60.96305       52.90176       63.14745
H         60.34006       52.84429       60.64714
H         62.13049       51.31760       62.31006
H         61.28958       52.68401       64.18728
H         61.62925       53.68884       62.73322
H         59.92031       53.28298       63.16490
N         58.95038       50.29238       62.41437
C         58.13814       49.17804       62.88357
C         58.81383       47.87580       62.51064
O         59.03721       47.03743       63.37239
C         56.74216       49.22641       62.24400
H         58.56339       50.90462       61.67973
H         57.99596       49.24675       63.98564
H         56.80010       49.16900       61.13586
H         56.12447       48.37828       62.61106
H         56.23164       50.17322       62.52039
N         59.17327       47.65915       61.21431
C         59.78619       46.42597       60.73299
C         61.13339       46.16067       61.39102
O         61.52545       45.00410       61.45851
C         59.94092       46.46111       59.19067
C         58.57043       46.59934       58.49158
C         58.67359       46.66793       56.99628
O         59.38553       47.64022       56.40052
O         58.05473       45.87550       56.30770
H         58.98684       48.41579       60.54151
H         59.10630       45.58311       60.99084
H         60.42641       45.52365       58.84310
H         60.59933       47.31434       58.91434
H         58.05657       47.52478       58.81187
H         57.93163       45.73589       58.77773
N         61.90052       47.17533       61.88478
C         63.18481       46.97730       62.52599
H         63.97183       47.50494       61.94680
H         63.14993       47.40440       63.55037
H         63.46207       45.90542       62.60273
H         61.57407       48.14456       61.80297
Ca        58.19287       46.85011       53.54121
O         58.61034       49.91917       53.92989
H         58.97497       50.56660       54.58394
H         57.91249       50.42413       53.44151
O         56.28305       48.61268       55.50514
H         55.68418       48.06187       56.06836
H         56.88089       49.06856       56.14786
O         55.86065       48.64674       52.63267
H         55.13718       49.32055       52.60436
H         55.55053       47.91892       52.03801

Ca 1.0



