%chk=holoCaM-CaMKII.loop2.water2.frame38.chk
%nprocshared=20
%mem=10GB
%nosave
#b3lyp/svp scf=(tight,noincore,xqc) Test 
#IOP(5/87=12) Density=Current Pop=(MK,readradii) iop(6/33=2) iop(6/42=6)

holoCaM-CaMKII.loop2.water2.frame38 

   -2  1 
C         30.67813       82.19745      123.27528
C         30.82581       81.77349      124.71199
O         29.93861       82.03769      125.50734
H         30.57413       83.29806      123.20287
H         31.55402       81.88339      122.66642
H         29.77707       81.71296      122.84053
N         31.90981       81.05049      125.09597
C         32.06391       80.44657      126.41455
C         32.40825       81.44763      127.51325
O         33.36277       82.19730      127.36547
C         33.14717       79.36200      126.32589
C         33.28847       78.62750      127.61677
O         34.37902       78.55546      128.15755
O         32.20894       78.05969      128.18759
H         32.60755       80.81963      124.37100
H         31.12295       79.91001      126.66639
H         34.12346       79.80344      126.02875
H         32.84222       78.62884      125.54920
N         31.71104       81.43058      128.68942
C         32.00791       82.27198      129.84512
C         32.37106       81.47026      131.10128
O         32.69664       82.10874      132.09394
C         30.77208       83.12782      130.15844
H         30.93571       80.76854      128.77671
H         32.86097       82.94664      129.61796
H         29.90888       82.47449      130.41934
H         30.96503       83.80728      131.01672
H         30.49362       83.74417      129.27888
N         32.27480       80.10435      131.17658
C         32.42387       79.37597      132.44363
C         33.22744       78.07344      132.36270
O         33.44737       77.47377      133.40651
C         31.02217       79.13990      133.04710
C         30.06976       78.32972      132.20613
O         28.81648       78.13776      132.65483
O         30.39956       77.85729      131.13011
H         31.92488       79.59203      130.35997
H         32.96828       80.01258      133.17568
H         30.55385       80.13519      133.20875
H         31.11985       78.64754      134.03815
N         33.70971       77.57396      131.18991
C         34.53326       76.37342      131.09467
C         33.84623       75.07033      131.47373
O         34.52917       74.05547      131.47246
H         33.54032       78.09214      130.32863
H         35.42549       76.50954      131.74396
H         34.89226       76.26193      130.04819
N         32.52815       74.99792      131.82097
C         31.90085       73.75988      132.28795
C         31.84566       72.63325      131.25091
O         31.50633       71.52296      131.63659
C         30.49545       74.04853      132.87465
C         29.49607       74.66295      131.91904
N         28.24469       74.94285      132.34781
O         29.80688       74.92620      130.76906
H         31.96863       75.85907      131.82201
H         32.52113       73.38320      133.13160
H         30.61439       74.75425      133.72521
H         30.06945       73.10310      133.27386
H         27.96457       74.74287      133.31856
H         27.55313       75.36104      131.70957
N         32.13606       72.83052      129.93321
C         32.12646       71.76952      128.93218
C         30.94944       71.86841      127.97870
O         30.91748       71.10684      127.02261
H         32.35748       73.77700      129.60773
H         32.07640       70.76132      129.39889
H         33.08337       71.82057      128.36930
N         29.90103       72.70741      128.22512
C         28.68032       72.75629      127.42897
C         28.35447       74.23214      127.06207
O         27.78164       74.83220      128.17411
C         27.52804       72.09975      128.25766
C         27.72605       70.59540      128.42202
O         27.46154       72.66354      129.54947
H         29.92033       73.28138      129.07217
H         28.81036       72.19130      126.47931
H         26.56105       72.22756      127.71964
H         26.61509       73.17576      129.62334
H         27.73768       70.10095      127.42886
H         28.67336       70.37479      128.95738
H         26.88432       70.17860      129.01624
N         27.43591       74.33989      125.91247
C         26.94881       75.71898      125.66278
C         25.74244       76.04067      126.55853
O         24.72380       75.37196      126.44783
C         26.58824       75.87769      124.15356
C         27.83311       75.58443      123.27158
C         26.03817       77.29075      123.86652
C         27.54471       75.59449      121.76763
H         26.63761       73.66707      125.96787
H         27.76916       76.44089      125.87534
H         25.79587       75.13679      123.90388
H         28.22336       74.57244      123.51145
H         28.63488       76.32298      123.48989
H         25.13002       77.48605      124.46539
H         26.79851       78.06510      124.10330
H         25.72332       77.39903      122.81059
H         26.76074       74.84732      121.52168
H         27.22512       76.59543      121.41565
H         28.47060       75.33162      121.21386
N         25.79881       77.05684      127.47201
C         24.68390       77.43119      128.34161
C         23.58805       78.14469      127.53441
O         23.78330       78.40082      126.35993
C         25.14956       78.40514      129.45643
C         26.06575       77.89333      130.55241
O         25.63752       77.88933      131.69608
O         27.35927       77.54376      130.37909
H         26.66672       77.59250      127.55035
H         24.26799       76.51874      128.82225
H         24.23421       78.71642      129.99641
H         25.59898       79.31196      129.00493
N         22.40567       78.51435      128.11994
C         21.36856       79.28027      127.42254
C         21.83673       80.70832      127.10291
O         21.75733       81.06060      125.93244
C         20.04289       79.29960      128.22407
C         18.95794       80.07211      127.50792
C         18.57589       81.34444      127.97055
C         18.32145       79.53495      126.37588
C         17.57868       82.06696      127.30926
C         17.31203       80.25529      125.72683
C         16.94341       81.52105      126.19141
H         22.22922       78.22868      129.09338
H         21.12470       78.75492      126.47093
H         20.18803       79.73549      129.21928
H         19.68572       78.26475      128.41470
H         19.06085       81.78434      128.83335
H         18.59546       78.55493      126.00611
H         17.29807       83.05025      127.66457
H         16.81449       79.83298      124.86329
H         16.16607       82.07945      125.68552
N         22.31675       81.60295      128.03701
C         22.77214       82.95802      127.72074
C         23.74488       82.99079      126.56141
O         23.61000       83.80338      125.65983
C         23.51814       83.40026      128.99380
C         22.74183       82.69489      130.06948
C         22.53907       81.32052      129.44632
H         21.88972       83.61058      127.53500
H         24.53986       82.95384      129.02669
H         23.62426       84.49907      129.11448
H         23.22544       82.67518      131.07019
H         21.75151       83.19670      130.15449
H         23.45185       80.70481      129.53298
H         21.70383       80.85629      129.98340
N         24.75606       82.08547      126.54883
C         25.79888       81.99775      125.53826
C         25.18646       81.75150      124.17336
O         25.49428       82.48353      123.24313
C         26.77816       80.86286      125.91216
C         27.44001       81.10493      127.29218
C         28.32516       79.97733      127.71819
O         28.77180       79.93883      128.98649
O         28.60084       79.06883      126.95365
H         24.75606       81.39552      127.31094
H         26.38387       82.94449      125.51497
H         27.56747       80.78372      125.13350
H         26.22239       79.89878      125.94543
H         26.67548       81.18840      128.08399
H         28.01711       82.05334      127.30032
N         24.27158       80.75831      123.99970
C         23.61061       80.47212      122.74425
H         22.51924       80.64695      122.85801
H         23.98537       81.10599      121.91442
H         23.77415       79.40669      122.48024
H         23.99671       80.19321      124.81005
Ca        28.63054       76.82972      128.68101
O         31.84120       75.39364      127.81987
H         32.76114       75.58115      128.13681
H         31.93891       74.59584      127.24407
O         30.45676       77.03402      125.74513
H         29.93555       77.69995      125.23140
H         31.20491       76.79306      125.14414

Ca 1.0



