%chk=holoCaM.loop4.water3.frame135.chk
%nprocshared=20
%mem=10GB
%nosave
#b3lyp/svp scf=(tight,noincore,xqc) Test 
#IOP(5/87=12) Density=Current Pop=(MK,readradii) iop(6/33=2) iop(6/42=6)

holoCaM.loop4.water3.frame135 

   -3  1 
C         31.58652      123.98933       -3.48344
C         30.60645      124.65697       -2.57297
O         29.83112      123.95696       -1.93625
H         32.60988      124.19980       -3.10028
H         31.44231      122.88659       -3.46805
H         31.48993      124.36863       -4.51749
N         30.64926      126.01159       -2.39385
C         29.97667      126.65682       -1.27806
C         29.08184      127.84039       -1.66515
O         29.53968      128.73717       -2.35832
C         31.08598      127.10919       -0.29822
C         30.54613      127.32067        1.07497
O         29.25563      127.04176        1.28827
O         31.26937      127.68457        1.98597
H         31.31738      126.56863       -2.94819
H         29.35170      125.90085       -0.75824
H         31.59200      128.02094       -0.68243
H         31.84120      126.30037       -0.19581
N         27.80873      127.93072       -1.16407
C         26.87809      129.03760       -1.40015
C         26.56666      129.80753       -0.09665
O         26.07904      130.92415       -0.21430
C         25.56956      128.47052       -2.06734
C         25.91950      127.74991       -3.39946
C         24.48327      129.54504       -2.30230
C         24.73929      127.02271       -4.05681
H         27.47872      127.16979       -0.56847
H         27.34871      129.77194       -2.09146
H         25.13702      127.71837       -1.36966
H         26.68857      126.97494       -3.20016
H         26.34382      128.47840       -4.12412
H         23.56135      129.09678       -2.72497
H         24.15293      130.00353       -1.34972
H         24.84591      130.33646       -2.99085
H         24.28420      126.29340       -3.35642
H         23.95564      127.72650       -4.39887
H         25.10150      126.47111       -4.94992
N         26.75232      129.28322        1.16219
C         26.31926      129.97460        2.38560
C         27.34881      130.07206        3.51768
O         27.01637      130.66222        4.53696
C         24.96966      129.39420        2.86540
C         24.81872      127.96856        3.36581
O         25.80323      127.06025        3.51590
O         23.69375      127.61438        3.67501
H         27.08387      128.32196        1.24998
H         26.08390      131.03452        2.13686
H         24.26436      129.50929        2.01331
H         24.59804      130.04676        3.68529
N         28.61562      129.58126        3.41852
C         29.62443      129.73828        4.46132
C         29.37402      129.03127        5.79435
O         30.18942      129.23959        6.68128
H         28.91504      129.15317        2.53571
H         29.74137      130.82524        4.65988
H         30.59741      129.36340        4.07665
N         28.31368      128.20228        6.04262
C         28.07546      127.60973        7.37005
C         29.19845      126.69101        7.85670
O         29.25145      126.41195        9.04707
C         26.74005      126.83274        7.40674
C         26.82805      125.53687        6.64939
O         27.18738      125.53339        5.48700
O         26.57185      124.36835        7.26911
H         27.62801      128.03684        5.29726
H         27.99075      128.46566        8.07471
H         25.93204      127.46572        6.98091
H         26.47164      126.59613        8.45907
N         30.07957      126.12955        6.98360
C         31.17482      125.25379        7.36409
C         31.06990      123.85770        6.77441
O         32.03623      123.12352        6.90410
H         29.97242      126.33523        5.98654
H         31.26964      125.15313        8.46679
H         32.11137      125.71901        6.98753
N         29.93791      123.40012        6.15259
C         29.83465      122.05286        5.58706
C         29.40897      122.10265        4.12541
O         28.93674      123.12840        3.66513
C         28.80427      121.21880        6.38634
C         29.19382      121.07085        7.86669
C         28.23111      120.17899        8.61287
N         26.92535      120.51240        8.74417
O         28.64110      119.14336        9.11592
H         29.10947      124.00228        6.10686
H         30.81764      121.53851        5.63352
H         28.73614      120.20099        5.94261
H         27.80193      121.69637        6.31185
H         29.21668      122.06549        8.36155
H         30.21229      120.62770        7.92248
H         26.55678      121.38482        8.33970
H         26.27924      119.89589        9.26014
N         29.47793      120.96644        3.36673
C         28.90995      120.85035        2.02569
C         27.62232      120.08075        2.18448
O         27.66174      119.00164        2.75882
C         29.85399      120.09324        1.04189
C         29.19326      119.95899       -0.34789
C         31.21152      120.78592        0.87755
H         29.84502      120.10985        3.80570
H         28.69215      121.84746        1.59763
H         30.04418      119.07032        1.43699
H         28.98765      120.96120       -0.78390
H         29.85203      119.39677       -1.04308
H         28.23467      119.40267       -0.28536
H         31.73583      120.85838        1.85218
H         31.85337      120.19401        0.18782
H         31.08887      121.79900        0.44554
N         26.44339      120.56181        1.68758
C         25.19047      119.84759        1.87375
C         24.74102      119.18166        0.58558
O         25.37835      119.31333       -0.44821
C         24.11603      120.76408        2.52038
C         23.41610      121.70843        1.56749
N         23.47220      123.04661        1.72581
O         22.73532      121.24912        0.66734
H         26.43549      121.43449        1.14626
H         25.35023      119.02084        2.59887
H         24.58387      121.31032        3.36874
H         23.31388      120.13104        2.95511
H         24.00806      123.45710        2.48814
H         22.96499      123.67675        1.08711
N         23.63195      118.40489        0.62573
C         23.09915      117.62208       -0.47909
C         22.81651      118.45225       -1.73596
O         23.44582      118.16511       -2.74639
C         21.86356      116.78203       -0.01296
C         20.74710      117.60716        0.60528
C         19.68352      118.07152       -0.18441
C         20.77795      117.95518        1.97215
C         18.72178      118.92953        0.35883
C         19.81706      118.80801        2.51229
C         18.79706      119.31387        1.70583
O         17.90049      120.16960        2.23445
H         23.18698      118.33421        1.53823
H         23.88277      116.88323       -0.76488
H         22.19844      116.03966        0.74510
H         21.48184      116.18872       -0.87179
H         19.62887      117.80849       -1.23307
H         21.55583      117.58855        2.62940
H         17.93173      119.31106       -0.27381
H         19.87981      119.08923        3.55662
H         17.19954      120.57189        1.70310
N         21.87938      119.44827       -1.79233
C         21.54003      120.10723       -3.05758
C         22.55937      121.16359       -3.45484
O         22.51224      121.64599       -4.57760
C         20.11254      120.70321       -3.03959
C         19.94594      121.94027       -2.13865
C         18.54110      122.46820       -2.21811
O         18.08142      122.83835       -3.28756
O         17.78607      122.55068       -1.10648
H         21.35536      119.69332       -0.94686
H         21.51397      119.31393       -3.83857
H         19.39616      119.91162       -2.72661
H         19.85334      120.99851       -4.08057
H         20.63294      122.74737       -2.47229
H         20.18469      121.68720       -1.08502
N         23.46807      121.61684       -2.54989
C         24.45154      122.65385       -2.81565
C         25.43075      122.15154       -3.84754
O         25.59062      122.78564       -4.88094
C         25.14304      123.00957       -1.48369
C         26.09539      124.20111       -1.54100
C         26.57039      124.49907       -0.14749
O         27.36248      123.62711        0.49480
O         26.19670      125.50506        0.43145
H         23.44610      121.22440       -1.60370
H         23.93090      123.57039       -3.17832
H         25.66599      122.12025       -1.07242
H         24.33290      123.29361       -0.78051
H         25.53884      125.07629       -1.92542
H         26.96142      124.00580       -2.20908
N         26.08837      120.97714       -3.63702
C         27.00316      120.38443       -4.58663
H         27.99237      120.24885       -4.10338
H         26.61177      119.39071       -4.89179
H         27.12989      121.00679       -5.49638
H         25.91365      120.45416       -2.76671
Ca        27.96922      126.93442        3.06131
O         25.54635      124.37870        3.90245
H         25.66041      123.52775        4.39292
H         24.77201      124.81720        4.33967
O         30.36697      124.03517        1.52571
H         29.97663      124.04715        0.61963
H         31.32305      124.25042        1.39342
O         30.81409      125.37094        3.87307
H         31.79849      125.43530        3.80702
H         30.50323      126.30918        3.87332

Ca 1.0



