%chk=holoCaM.loop3.water3.frame472.chk
%nprocshared=20
%mem=10GB
%nosave
#b3lyp/svp scf=(tight,noincore,xqc) Test 
#IOP(5/87=12) Density=Current Pop=(MK,readradii) iop(6/33=2) iop(6/42=6)

holoCaM.loop3.water3.frame472 

   0  1 
C         31.53839       45.53031       68.97383
C         32.37826       44.50914       69.67574
O         33.39611       44.11295       69.12443
H         30.64995       45.80847       69.57728
H         32.14679       46.44180       68.79355
H         31.19896       45.12057       67.99970
N         32.03089       44.04353       70.91031
C         32.85746       43.07974       71.61911
C         32.87958       41.76651       70.86214
O         31.82487       41.17614       70.66601
C         32.36420       42.86193       73.05683
C         33.37686       42.08304       73.84435
O         34.53421       41.69884       73.26742
O         33.18598       41.87050       75.02451
H         31.18296       44.41412       71.36662
H         33.87835       43.51909       71.68491
H         31.37529       42.35249       73.06593
H         32.25551       43.85045       73.55420
N         34.04970       41.28779       70.35148
C         34.06957       40.23370       69.34820
C         34.05252       38.82195       69.91699
O         33.73084       37.91188       69.16563
C         35.22600       40.50179       68.35854
C         35.10842       39.79778       66.99354
C         33.75859       40.03024       66.27396
C         33.35877       41.51618       66.14344
N         32.03039       41.64697       65.54754
H         34.89106       41.86414       70.48306
H         33.12102       40.35875       68.79339
H         36.20201       40.27096       68.83917
H         35.24382       41.59198       68.14324
H         35.25792       38.70470       67.11624
H         35.93308       40.18222       66.35393
H         32.96131       39.49089       66.82515
H         33.81110       39.57102       65.26402
H         34.10885       42.05761       65.52706
H         33.31877       42.00255       67.14065
H         32.01778       41.22797       64.59066
H         31.32277       41.16969       66.15387
H         31.78083       42.66078       65.48583
N         34.35659       38.55533       71.22297
C         34.18459       37.23145       71.82831
C         33.20513       37.27617       73.00281
O         32.95547       36.23227       73.59028
C         35.54153       36.59280       72.20646
C         36.32608       37.27846       73.28617
O         37.51108       36.76399       73.66527
O         35.90389       38.27764       73.83698
H         34.69876       39.32245       71.81897
H         33.73970       36.53080       71.08742
H         36.17216       36.54112       71.29285
H         35.35657       35.54948       72.54595
N         32.55750       38.42735       73.36052
C         31.50597       38.46720       74.36093
C         31.94963       38.31610       75.80174
O         31.06118       38.27267       76.64192
H         32.71552       39.29688       72.83478
H         30.75859       37.68152       74.11474
H         30.98603       39.44832       74.29454
N         33.25877       38.26106       76.20089
C         33.61248       38.11798       77.61914
C         33.16468       39.31359       78.46804
O         33.22574       39.22210       79.68553
C         35.12390       37.85430       77.82111
C         35.97796       39.08456       77.64442
N         36.79219       39.51708       78.63651
O         35.93351       39.69888       76.59720
H         34.00353       38.29148       75.49290
H         33.08317       37.20567       77.97295
H         35.45375       37.06397       77.11227
H         35.28187       37.46570       78.84971
H         36.85232       39.01360       79.53324
H         37.37321       40.35908       78.50655
N         32.73325       40.47161       77.88698
C         32.24782       41.63258       78.60966
C         33.08903       42.87591       78.38751
O         32.67015       43.91994       78.86929
H         32.72479       40.54488       76.86828
H         32.19777       41.44547       79.70348
H         31.21440       41.83585       78.25437
N         34.29897       42.85572       77.74448
C         35.15904       44.03828       77.64732
C         35.63086       44.31240       76.23093
O         35.48763       43.46860       75.36193
C         36.38030       43.83324       78.55997
C         35.94290       43.73590       79.99886
C         35.65562       42.49120       80.58367
C         35.78594       44.90492       80.75853
C         35.21899       42.41931       81.90951
C         35.35631       44.83136       82.08551
C         35.06942       43.58709       82.66548
O         34.64724       43.50298       83.94288
H         34.67309       41.96065       77.39703
H         34.60908       44.94547       77.98289
H         37.10590       44.66981       78.45983
H         36.91729       42.90738       78.25367
H         35.75414       41.57971       80.01141
H         35.99654       45.87293       80.32080
H         34.99266       41.45535       82.34785
H         35.24290       45.74230       82.65905
H         34.52968       44.28759       84.49734
N         36.19511       45.51787       75.93316
C         36.71294       45.88936       74.61950
C         38.13972       46.39078       74.77593
O         38.37030       47.30327       75.55895
C         35.78919       46.94731       73.93972
C         34.40946       46.29070       73.64791
C         36.42426       47.47145       72.63110
C         33.39226       47.20068       72.95807
H         36.23353       46.23243       76.67759
H         36.71827       45.01992       73.93581
H         35.65810       47.81590       74.62225
H         33.95739       45.95213       74.60374
H         34.55606       45.39846       73.00118
H         37.40489       47.94994       72.82909
H         36.56583       46.64699       71.90225
H         35.80009       48.26068       72.16753
H         33.73367       47.49685       71.94512
H         32.43897       46.64552       72.82702
H         33.20239       48.10541       73.57096
N         39.13386       45.88564       73.99097
C         40.50656       46.37923       73.99799
C         40.76386       47.18030       72.73469
O         39.87301       47.28693       71.90899
C         41.48154       45.19371       74.11646
O         41.33812       44.33775       73.01327
H         38.89103       45.17425       73.28704
H         40.67142       47.06453       74.85768
H         41.26488       44.63316       75.05215
H         42.52579       45.57585       74.16048
H         42.08760       43.68905       73.06065
N         41.95710       47.79809       72.52249
C         42.24777       48.57273       71.31775
C         42.16408       47.70648       70.07547
O         41.53375       48.11574       69.11098
C         43.63709       49.20511       71.40991
H         42.68575       47.71824       73.24878
H         41.52181       49.41321       71.22922
H         43.68230       49.87588       72.29455
H         44.42458       48.42823       71.50102
H         43.83274       49.81760       70.50279
N         42.74251       46.47110       70.05353
C         42.68391       45.56685       68.90763
C         41.26006       45.38037       68.42423
O         41.00450       45.58484       67.24542
C         43.28682       44.20505       69.27994
H         43.21540       46.14520       70.91100
H         43.28743       45.99121       68.07479
H         43.26365       43.52146       68.40419
H         44.34334       44.32884       69.59895
H         42.71900       43.73499       70.11243
N         40.27391       45.02750       69.29231
C         38.88090       44.85704       68.88906
C         38.34438       46.13851       68.26696
O         37.92983       46.09944       67.11693
C         38.02508       44.38793       70.08697
C         38.47472       42.98524       70.54151
C         37.64397       42.45266       71.66285
O         37.62758       43.07699       72.85004
O         37.01923       41.41616       71.51959
H         40.53161       44.89656       70.28224
H         38.82241       44.05837       68.11535
H         36.95940       44.32897       69.77280
H         38.10469       45.11439       70.92451
H         39.52934       42.99601       70.88449
H         38.39493       42.28913       69.67839
N         38.36593       47.31668       68.94755
C         37.94705       48.58415       68.38267
H         37.13771       49.01872       69.00459
H         38.81024       49.28436       68.38086
H         37.58160       48.48526       67.33928
H         38.72412       47.33014       69.90485
Ca        36.36136       40.94309       74.32466
O         38.89135       39.70114       72.78346
H         39.80115       39.44399       73.07461
H         38.80493       39.33022       71.86956
O         38.96894       41.97404       75.47537
H         39.12191       42.55113       76.26483
H         39.62387       42.28903       74.80291
O         38.90683       38.93421       75.84979
H         38.66892       38.32555       76.59279
H         38.11388       38.92048       75.25890

Ca 1.0



