%chk=holoCaM.loop1.water2.frame312.chk
%nprocshared=20
%mem=10GB
%nosave
#b3lyp/svp scf=(tight,noincore,xqc) Test 
#IOP(5/87=12) Density=Current Pop=(MK,readradii) iop(6/33=2) iop(6/42=6)

holoCaM.loop1.water2.frame312 

   0  1 
C         18.53144       29.72007       42.35016
C         17.77723       29.19625       41.16037
O         18.23922       28.26071       40.52931
H         19.53114       30.07779       42.02344
H         18.00093       30.57350       42.82520
H         18.65638       28.91781       43.10526
N         16.60146       29.76754       40.79017
C         15.83886       29.38293       39.60396
C         16.66559       29.64520       38.34649
O         17.13309       30.76399       38.18404
C         14.53286       30.20244       39.59848
C         13.68759       29.95920       38.39516
O         13.27321       28.84350       38.14004
O         13.36585       30.99284       37.60181
H         16.24052       30.53577       41.37850
H         15.56463       28.30518       39.66375
H         14.77328       31.28741       39.63973
H         13.94069       29.94340       40.50427
N         16.88556       28.66121       37.41644
C         17.76148       28.84112       36.25258
C         17.02849       28.81587       34.90813
O         17.68240       29.05262       33.90160
C         18.85884       27.74784       36.24802
C         19.70783       27.66268       37.52836
C         20.46973       28.96052       37.83055
C         21.37305       28.80868       39.06183
N         22.07127       30.06136       39.34916
H         16.44039       27.74080       37.55260
H         18.24758       29.83792       36.29834
H         19.54323       27.91703       35.38803
H         18.37290       26.75651       36.10475
H         20.44118       26.83746       37.39261
H         19.05878       27.39149       38.38378
H         19.74772       29.78057       38.02298
H         21.09799       29.22903       36.95370
H         22.11968       28.00410       38.87915
H         20.76396       28.52243       39.94603
H         22.68300       29.93008       40.18671
H         22.66597       30.33732       38.53417
H         21.37878       30.81879       39.55246
N         15.69745       28.54451       34.79741
C         14.95992       28.53965       33.52492
C         13.81053       29.54754       33.52144
O         13.09594       29.61352       32.53052
C         14.49369       27.10519       33.17190
C         14.01487       26.33398       34.36538
O         13.02553       26.78608       35.15553
O         14.63948       25.34403       34.70981
H         15.16848       28.32046       35.65226
H         15.60671       28.85832       32.67730
H         15.38384       26.56039       32.78161
H         13.74255       27.11536       32.35371
N         13.62549       30.42828       34.54274
C         12.63831       31.49514       34.52157
C         11.21097       31.00975       34.58400
O         10.40461       31.43496       33.76925
H         14.26193       30.40861       35.34949
H         12.79941       32.14785       33.63584
H         12.79267       32.12757       35.42042
N         10.81918       30.16073       35.57310
C          9.42761       29.79771       35.83545
C          9.01725       30.14748       37.27198
O          7.88367       29.87486       37.64079
C          9.18967       28.31222       35.49312
C          9.97747       27.31104       36.29191
O         10.80021       27.68908       37.28646
O          9.86386       26.12546       36.02972
H         11.54935       29.77154       36.18498
H          8.74882       30.36930       35.16478
H          9.44157       28.17000       34.41941
H          8.10926       28.08067       35.61969
N          9.87638       30.77552       38.12986
C          9.55667       31.14343       39.49804
C          9.31133       29.93976       40.37242
O          8.31910       29.92349       41.08172
H         10.81536       31.04277       37.81319
H          8.69388       31.84376       39.52264
H         10.43580       31.67607       39.92439
N         10.22974       28.93495       40.41765
C         10.16566       27.75649       41.29424
C         11.50935       27.01983       41.31004
O         12.37600       27.29682       40.49027
C          9.05229       26.73045       40.89808
C          7.62282       27.11964       41.27661
O          9.08870       26.45638       39.52274
H         11.06255       29.07201       39.82669
H         10.02238       28.10913       42.33960
H          9.22250       25.78933       41.46877
H         10.00053       26.13331       39.31398
H          7.56405       27.36093       42.36013
H          7.23332       27.95139       40.66613
H          6.94694       26.26020       41.07931
N         11.76972       26.10083       42.28709
C         13.06574       25.44751       42.43744
C         12.88700       23.93362       42.48589
O         12.31685       23.41897       43.43829
C         13.77411       26.01296       43.70521
C         14.01130       27.54167       43.52957
C         15.10187       25.28824       43.96672
C         14.59381       28.23737       44.75981
H         11.05059       25.92014       43.00520
H         13.72066       25.68649       41.56994
H         13.11127       25.84591       44.58357
H         13.04447       28.04554       43.32305
H         14.68451       27.72115       42.66121
H         15.78964       25.44520       43.11421
H         15.57754       25.65594       44.89595
H         14.94119       24.20144       44.11220
H         15.60639       27.86152       45.00567
H         14.68563       29.32478       44.55202
H         13.91987       28.09867       45.63127
N         13.35900       23.16261       41.46572
C         13.29384       21.69941       41.43379
C         14.35826       21.08266       42.33861
O         15.10518       21.80687       42.97913
C         13.52514       21.19385       39.97906
C         12.44295       21.69997       39.02626
O         14.79157       21.59758       39.52296
H         13.76072       23.64927       40.65166
H         12.28177       21.35868       41.74690
H         13.46240       20.08339       39.96621
H         14.99767       21.04794       38.72284
H         11.43991       21.38192       39.38206
H         12.47416       22.80466       38.94652
H         12.60618       21.26925       38.01684
N         14.51799       19.72738       42.38116
C         15.65772       19.06398       43.01335
C         16.95664       19.45801       42.31142
O         17.91356       19.78427       42.99748
C         15.50024       17.52322       42.99816
C         14.30836       17.06894       43.85018
O         15.35224       17.05490       41.68245
H         13.83176       19.14020       41.88656
H         15.72317       19.35978       44.08556
H         16.42399       17.09291       43.45545
H         15.67533       16.11628       41.67257
H         14.25319       15.95995       43.85838
H         14.43244       17.41745       44.89817
H         13.35149       17.46534       43.45244
N         17.05957       19.46990       40.94573
C         18.27648       19.89035       40.23778
C         18.63620       21.35925       40.48857
O         19.71345       21.76323       40.07221
C         18.13672       19.69476       38.70230
C         18.27782       18.24767       38.19841
C         17.23322       17.25380       38.71182
C         17.48290       15.86710       38.10023
N         16.52233       14.88684       38.60200
H         16.23592       19.18645       40.39483
H         19.13094       19.27769       40.60049
H         18.96889       20.23255       38.19575
H         17.19130       20.15592       38.34367
H         19.29025       17.87983       38.47424
H         18.21534       18.27897       37.08740
H         16.21342       17.60379       38.43910
H         17.31664       17.16690       39.81371
H         18.51222       15.53004       38.35789
H         17.40279       15.92671       36.99152
H         16.60491       14.80399       39.64118
H         15.54981       15.17101       38.34370
H         16.73096       13.95639       38.17270
N         17.79348       22.22014       41.12425
C         18.07682       23.63491       41.34889
C         18.12825       23.97553       42.83419
O         18.40110       25.12542       43.15179
C         16.99697       24.45889       40.61491
C         17.14105       24.27246       39.09661
C         16.03178       24.86611       38.28210
O         14.90238       25.35609       38.83251
O         16.13597       24.85129       37.06703
H         16.87708       21.88206       41.42449
H         19.07441       23.91367       40.94319
H         17.09738       25.54374       40.84010
H         15.99997       24.12112       40.96404
H         17.17820       23.19560       38.82932
H         18.10184       24.74305       38.79155
N         17.91628       23.04166       43.80501
C         18.01625       23.34324       45.21560
H         17.28147       24.12205       45.49772
H         17.80590       22.42826       45.81093
H         19.04216       23.69274       45.45551
H         17.68650       22.07673       43.55640
Ca        13.49212       26.21433       37.29028
O         10.35941       23.98532       38.00037
H         10.30065       23.03144       37.74809
H          9.43564       24.31993       37.88678
O         12.75683       23.14820       35.96148
H         12.64622       22.19617       35.71354
H         13.73635       23.27016       36.03280

Ca 1.0



