%chk=holoCaM.loop3.water2.frame438.chk
%nprocshared=20
%mem=10GB
%nosave
#b3lyp/svp scf=(tight,noincore,xqc) Test 
#IOP(5/87=12) Density=Current Pop=(MK,readradii) iop(6/33=2) iop(6/42=6)

holoCaM.loop3.water2.frame438 

   0  1 
C          6.01727       69.82457       54.72246
C          6.36108       68.48750       55.30634
O          5.65085       67.52718       55.04347
H          5.00331       70.12719       55.05348
H          6.74445       70.60296       55.03667
H          6.03789       69.75526       53.61408
N          7.46874       68.33922       56.08309
C          7.88984       67.04553       56.59705
C          6.90661       66.53576       57.64414
O          6.71288       67.18331       58.66308
C          9.33123       67.14656       57.12395
C          9.98291       65.82265       57.38450
O          9.38281       64.76803       57.26275
O         11.28132       65.80704       57.70529
H          8.06770       69.16329       56.25023
H          7.92926       66.34962       55.73325
H          9.37867       67.78401       58.03335
H          9.94602       67.62627       56.33063
N          6.22728       65.37812       57.41896
C          5.19048       64.82877       58.28882
C          5.69630       64.52594       59.69051
O          5.12008       65.03235       60.64299
C          4.60742       63.55585       57.63058
C          3.41427       62.97649       58.40180
C          2.78841       61.80500       57.63511
C          1.55989       61.25991       58.37380
N          0.92540       60.18500       57.61185
H          6.42373       64.88449       56.53883
H          4.36662       65.57400       58.35887
H          5.39655       62.77823       57.52227
H          4.25701       63.83383       56.61144
H          2.64789       63.77241       58.52479
H          3.74172       62.63297       59.40750
H          3.53821       60.99312       57.50721
H          2.47283       62.15977       56.62915
H          0.82331       62.08113       58.52120
H          1.86497       60.87724       59.37312
H          0.61159       60.54348       56.68034
H          1.59459       59.39270       57.47797
H          0.08989       59.84060       58.13768
N          6.76146       63.70186       59.88760
C          7.25465       63.31538       61.21468
C          8.58283       63.99050       61.56269
O          9.06505       63.78486       62.66817
C          7.35570       61.76885       61.32105
C          8.37856       61.18485       60.38404
O          8.60943       59.98675       60.37287
O          9.06060       62.01221       59.58123
H          7.24177       63.35525       59.04651
H          6.53667       63.65042       61.99431
H          6.36451       61.31578       61.10659
H          7.64657       61.49554       62.35895
N          9.20772       64.84234       60.69841
C         10.39658       65.59815       61.04811
C         11.62746       64.75174       61.28587
O         12.15105       64.80791       62.39019
H          8.78917       65.03600       59.78061
H         10.17104       66.20444       61.95396
H         10.63393       66.31315       60.23297
N         12.20063       64.01688       60.28099
C         13.49250       63.34063       60.43802
C         14.58219       63.98354       59.57267
O         15.72035       63.54399       59.65014
C         13.36184       61.81676       60.18074
C         13.60334       61.33805       58.73254
N         13.35912       59.90692       58.59759
O         12.88759       62.03371       57.76182
H         11.73594       63.98692       59.36305
H         13.81954       63.44486       61.49545
H         12.39156       61.45502       60.58791
H         14.16207       61.31051       60.76298
H         14.02779       59.39211       59.21314
H         13.56643       59.62966       57.61096
N         14.29999       65.01531       58.71676
C         15.26601       65.66050       57.84202
C         14.96686       65.44433       56.36112
O         15.72877       65.95734       55.55332
H         13.35046       65.38558       58.66776
H         16.28967       65.27096       58.02931
H         15.27212       66.74798       58.06962
N         13.95339       64.63280       55.92528
C         13.83268       64.16621       54.54022
C         12.38441       64.11343       54.06527
O         11.55893       63.56825       54.78757
C         14.35429       62.71476       54.49907
C         15.78412       62.59690       54.96972
C         16.06886       61.92525       56.16815
C         16.84119       63.14742       54.22755
C         17.37972       61.80909       56.62689
C         18.15987       63.01851       54.68040
C         18.43153       62.34919       55.88434
O         19.69456       62.21465       56.33510
H         13.35587       64.17241       56.62345
H         14.45341       64.76869       53.84071
H         14.27486       62.29720       53.47171
H         13.70287       62.10064       55.15789
H         15.27536       61.49559       56.75315
H         16.64601       63.66513       53.29691
H         17.57509       61.29378       57.55910
H         18.96868       63.43724       54.09583
H         20.45513       62.55961       55.84717
N         12.02788       64.53276       52.80977
C         10.69953       64.27931       52.23998
C         10.80234       63.35796       51.02287
O         11.40104       63.72701       50.02299
C          9.91360       65.59039       51.92387
C         10.60764       66.51523       50.88541
C          9.63014       66.33372       53.23963
C          9.75348       67.71602       50.47235
H         12.74150       64.97322       52.20938
H         10.07387       63.73776       52.98089
H          8.92962       65.27838       51.50356
H         10.79204       65.96285       49.94673
H         11.58229       66.87534       51.27741
H         10.57267       66.69184       53.70468
H          8.95072       67.19527       53.08425
H          9.12125       65.64751       53.94616
H         10.28645       68.29198       49.68629
H          8.78292       67.36996       50.05538
H          9.56881       68.40127       51.32247
N         10.23785       62.11571       51.04975
C         10.21778       61.21663       49.89514
C          9.26883       61.72674       48.80603
O          8.61683       62.74432       48.99574
C          9.81195       59.79767       50.34662
O          8.52874       59.80379       50.90601
H          9.81892       61.78940       51.93227
H         11.24781       61.13863       49.48230
H         10.54805       59.45169       51.10738
H          9.83857       59.09346       49.48734
H          8.38251       58.89638       51.27990
N          9.13780       61.04087       47.63173
C          8.22192       61.42548       46.55636
C          6.78319       61.41083       47.03278
O          6.08823       62.40015       46.85466
C          8.36527       60.46955       45.36593
H          9.71684       60.19846       47.49663
H          8.48270       62.44429       46.19116
H          7.68136       60.77855       44.54560
H          9.40610       60.49969       44.98032
H          8.12245       59.42575       45.65845
N          6.27822       60.31525       47.66497
C          4.92648       60.24667       48.21240
C          4.70417       61.34394       49.23836
O          3.71990       62.06410       49.14965
C          4.70757       58.88146       48.88237
H          6.90288       59.50372       47.79517
H          4.17957       60.34147       47.39300
H          3.67763       58.81359       49.29371
H          4.84169       58.06636       48.13985
H          5.43148       58.72308       49.71143
N          5.60452       61.51820       50.24438
C          5.46079       62.48117       51.33602
C          5.39393       63.93567       50.86838
O          5.04749       64.78558       51.67654
C          6.63736       62.25650       52.31137
C          6.58550       63.00692       53.64813
C          7.72382       62.58622       54.55068
O          7.81391       63.09274       55.78861
O          8.55747       61.77094       54.18798
H          6.42138       60.89234       50.24645
H          4.50653       62.23817       51.85384
H          7.58321       62.51065       51.78645
H          6.64668       61.17092       52.55750
H          5.62943       62.76727       54.16019
H          6.64565       64.10335       53.48544
N          5.70049       64.30096       49.59076
C          5.60182       65.65795       49.09192
H          5.22230       66.36735       49.85621
H          6.60164       66.00050       48.75302
H          4.90634       65.67635       48.22561
H          6.03262       63.59619       48.92736
Ca        10.75742       61.63395       58.24639
O          9.16235       59.21696       56.89291
H          9.42240       58.41443       56.37469
H          9.63713       59.11691       57.75591
O         11.42908       60.58457       55.11468
H         10.87090       60.17692       54.40610
H         12.22213       59.99520       55.17660

Ca 1.0



