%chk=holoCaM-CaMKII.loop4.water2.frame303.chk
%nprocshared=20
%mem=10GB
%nosave
#b3lyp/svp scf=(tight,noincore,xqc) Test 
#IOP(5/87=12) Density=Current Pop=(MK,readradii) iop(6/33=2) iop(6/42=6)

holoCaM-CaMKII.loop4.water2.frame303 

   -3  1 
C         46.66716       28.58128       84.63514
C         45.69570       27.67117       85.32561
O         45.16149       26.78152       84.67994
H         47.51272       27.98503       84.23373
H         46.15539       29.10268       83.79967
H         47.07249       29.34538       85.33187
N         45.41750       27.84015       86.64809
C         44.48408       27.00488       87.38795
C         43.36605       27.88911       87.90236
O         43.64312       28.87187       88.57538
C         45.23554       26.29417       88.51916
C         44.41146       25.26544       89.23621
O         44.98418       24.56656       90.22422
O         43.25679       25.02496       88.91955
H         45.88934       28.60109       87.16145
H         44.06507       26.21518       86.72686
H         45.61698       27.03968       89.24990
H         46.10453       25.75625       88.08127
N         42.07423       27.61557       87.57134
C         40.96365       28.52855       87.81427
C         39.99189       27.98551       88.86466
O         39.14142       28.75243       89.29830
C         40.31719       28.86259       86.42885
C         41.37425       29.38078       85.40499
C         39.13466       29.84095       86.51292
C         42.06905       30.69139       85.79311
H         41.87901       26.75557       87.05172
H         41.34976       29.46898       88.26045
H         39.91518       27.91421       86.00655
H         40.88408       29.52568       84.41802
H         42.16029       28.60910       85.25456
H         38.30160       29.40684       87.09948
H         39.43763       30.80342       86.97225
H         38.73613       30.03585       85.49353
H         42.80261       30.96426       85.00545
H         41.33881       31.52028       85.88314
H         42.62595       30.58857       86.74520
N         40.09576       26.72655       89.38994
C         39.31921       26.27554       90.54854
C         40.22381       25.92279       91.73364
O         39.70407       25.56272       92.77951
C         38.38778       25.09854       90.18210
C         39.06848       23.81141       89.79539
O         40.28378       23.71928       89.74454
O         38.31278       22.73105       89.52407
H         40.78289       26.07274       88.99093
H         38.65231       27.09339       90.90013
H         37.71960       25.41318       89.35164
H         37.74673       24.87922       91.06416
N         41.58382       26.02155       91.65100
C         42.49048       25.73179       92.74567
C         42.48170       24.28033       93.16374
O         42.31593       24.01148       94.34526
H         42.02554       26.35428       90.78590
H         42.26615       26.39596       93.60877
H         43.52489       25.96046       92.40713
N         42.70462       23.29195       92.24991
C         42.89182       21.88645       92.60665
C         44.23455       21.37391       92.07552
O         44.37911       20.18014       91.85018
C         41.69168       21.03101       92.13649
C         41.49280       20.93197       90.64774
O         40.46653       20.20316       90.17120
O         42.24532       21.48648       89.86558
H         42.78389       23.55406       91.25717
H         42.91158       21.76811       93.71302
H         40.76570       21.45121       92.58611
H         41.81678       19.99801       92.52858
N         45.28284       22.23059       91.89941
C         46.60436       21.83012       91.43840
C         46.71499       21.38515       89.98193
O         47.81913       21.01271       89.61198
H         45.16966       23.21316       92.18278
H         46.97491       21.01800       92.10084
H         47.29289       22.69550       91.55496
N         45.66762       21.37401       89.10000
C         45.78282       20.85564       87.72937
C         45.41713       21.91227       86.63569
O         44.49782       22.88648       87.04382
C         45.00413       19.52008       87.61039
C         45.66194       18.42867       88.47861
C         45.19166       17.04507       88.10394
N         43.90013       16.67562       88.24763
O         45.99959       16.24295       87.65724
H         44.74045       21.68532       89.41707
H         46.83454       20.59222       87.48504
H         45.07889       19.15566       86.56666
H         43.92851       19.64463       87.85620
H         45.48902       18.62610       89.55767
H         46.76044       18.45147       88.29863
H         43.20187       17.33001       88.62594
H         43.60249       15.72508       87.97956
N         45.07557       21.29701       85.33020
C         44.85777       22.19875       84.17938
C         44.00258       21.44074       83.15354
O         44.54018       20.96467       82.16134
C         46.19261       22.70467       83.52360
C         45.88586       23.70357       82.38467
C         47.13857       23.38961       84.51937
H         45.81553       20.60624       85.06191
H         44.29755       23.09284       84.49889
H         46.74390       21.83776       83.09496
H         46.82612       24.03588       81.89612
H         45.25206       23.25555       81.59295
H         45.35609       24.59591       82.78133
H         46.64366       24.25857       85.00235
H         47.48337       22.67584       85.29313
H         48.05033       23.74426       83.99132
N         42.65893       21.26080       83.34010
C         41.82938       20.50016       82.39238
C         41.80281       21.12757       80.99356
O         42.41106       22.16239       80.79683
C         40.39187       20.25094       82.93072
C         39.40342       21.39219       82.81740
N         39.54383       22.53819       83.51357
O         38.42422       21.25279       82.09922
H         42.23832       21.63795       84.19948
H         42.29195       19.49186       82.31172
H         40.43765       19.89203       83.98007
H         39.96755       19.41350       82.33587
H         40.33431       22.68453       84.14916
H         38.83040       23.27772       83.42932
N         41.10568       20.54538       79.97396
C         41.02765       21.07140       78.60480
C         40.48681       22.49496       78.56095
O         41.11738       23.34140       77.94351
C         40.13017       20.14481       77.75193
C         39.92902       20.64212       76.33647
C         41.01324       20.78476       75.45274
C         38.63648       20.96943       75.89126
C         40.80413       21.24964       74.14871
C         38.43064       21.43308       74.59015
C         39.51448       21.57533       73.71342
O         39.32808       22.02232       72.45492
H         40.59876       19.67283       80.18227
H         42.04559       21.07095       78.15402
H         39.14270       20.05739       78.25632
H         40.57804       19.12777       77.71668
H         42.01823       20.53716       75.76987
H         37.78463       20.86909       76.55230
H         41.64513       21.35711       73.47497
H         37.42780       21.68144       74.26608
H         38.45153       22.25763       72.11768
N         39.32725       22.82703       79.19261
C         38.75490       24.17633       79.19064
C         39.78298       25.20451       79.63619
O         40.00284       26.17047       78.91880
C         37.51567       24.24199       80.11964
C         36.31737       23.40147       79.63168
C         35.65575       23.94021       78.38691
O         36.07885       25.07685       77.79876
O         34.69225       23.35382       77.92118
H         38.85485       22.08513       79.72662
H         38.44826       24.44583       78.15799
H         37.17106       25.29371       80.23199
H         37.81717       23.88327       81.12784
H         35.54715       23.39778       80.43284
H         36.62838       22.35046       79.45869
N         40.48548       25.03050       80.78680
C         41.53252       25.94473       81.24888
C         42.60365       26.13953       80.18383
O         42.92329       27.28180       79.88576
C         42.12075       25.43642       82.58508
C         41.06374       25.59872       83.69926
C         41.45292       25.02655       85.02736
O         40.56154       25.05286       86.03475
O         42.54509       24.52078       85.20752
H         40.28958       24.17874       81.33452
H         41.09684       26.94928       81.44987
H         43.01341       26.03365       82.87115
H         42.43345       24.37295       82.47391
H         40.12564       25.10529       83.39800
H         40.84182       26.67806       83.83762
N         43.14534       25.08470       79.51758
C         44.10584       25.21593       78.44037
H         45.01202       24.62219       78.67849
H         43.65791       24.82187       77.50238
H         44.40599       26.26967       78.26444
H         42.82795       24.14126       79.74153
Ca        42.37459       22.10690       87.01651
O         39.14828       22.68179       86.63231
H         38.48647       23.41108       86.73903
H         38.70141       21.88073       87.00261
O         41.21619       19.55527       86.71677
H         41.47527       19.71845       87.65816
H         40.22886       19.49980       86.74159

Ca 1.0



