%chk=holoCaM.loop3.water2.frame99.chk
%nprocshared=20
%mem=10GB
%nosave
#b3lyp/svp scf=(tight,noincore,xqc) Test 
#IOP(5/87=12) Density=Current Pop=(MK,readradii) iop(6/33=2) iop(6/42=6)

holoCaM.loop3.water2.frame99 

   0  1 
C        104.13520       18.34903       38.90020
C        104.40744       17.58155       37.64344
O        105.32804       16.78097       37.62186
H        103.10834       18.11974       39.25585
H        104.86000       18.07427       39.69546
H        104.21780       19.43670       38.69577
N        103.60679       17.76179       36.55857
C        103.76566       17.04600       35.29706
C        105.02434       17.51966       34.57329
O        104.95227       18.47280       33.80755
C        102.50568       17.29171       34.44062
C        102.44651       16.47286       33.19172
O        103.38493       15.54973       32.90571
O        101.50431       16.63078       32.43879
H        102.81328       18.41485       36.66074
H        103.81339       15.95334       35.50541
H        102.44131       18.37048       34.17508
H        101.60333       17.03129       35.03554
N        106.23464       16.95059       34.83123
C        107.47204       17.46689       34.25667
C        107.53537       17.14759       32.77525
O        107.63030       18.06386       31.97026
C        108.72401       16.92020       34.99052
C        108.70233       17.10620       36.52623
C        108.47199       18.55290       36.99440
C        108.41075       18.62181       38.52808
N        108.13478       19.98344       38.98501
H        106.27772       16.16737       35.49574
H        107.49639       18.57103       34.39396
H        109.61898       17.43657       34.57703
H        108.84087       15.83261       34.79757
H        109.66933       16.73853       36.93393
H        107.90641       16.46718       36.95778
H        107.49963       18.92193       36.60654
H        109.28667       19.20748       36.61542
H        109.37485       18.27337       38.95986
H        107.60115       17.95109       38.89421
H        108.89939       20.62808       38.68014
H        107.21883       20.31295       38.60130
H        108.08084       19.98869       40.02938
N        107.48991       15.85107       32.34769
C        107.59815       15.46568       30.94016
C        106.46101       15.98418       30.06220
O        106.57389       15.87074       28.84918
C        107.70947       13.93100       30.78996
C        106.45048       13.19773       31.18362
O        105.86004       12.52179       30.35750
O        105.97536       13.26438       32.44143
H        107.43157       15.11484       33.06516
H        108.54844       15.90582       30.56332
H        108.55581       13.55757       31.40538
H        107.94011       13.69615       29.72703
N        105.33840       16.55078       30.58702
C        104.27343       17.10665       29.77276
C        103.60068       16.08513       28.88339
O        103.59874       16.27994       27.67602
H        105.23374       16.62631       31.60618
H        104.68905       17.93226       29.15404
H        103.49769       17.54442       30.43773
N        102.95611       15.00488       29.41404
C        102.16245       14.07240       28.60843
C        100.67451       14.14581       28.95654
O         99.88580       13.48454       28.29580
C        102.70157       12.63054       28.72876
C        102.48540       11.99713       30.08702
N        101.74208       10.87117       30.20604
O        102.99044       12.49076       31.08333
H        102.99172       14.87559       30.43428
H        102.24356       14.35257       27.53574
H        103.78515       12.62444       28.48354
H        102.18934       12.01085       27.96041
H        101.31007       10.42942       29.38123
H        101.59777       10.43366       31.12740
N        100.22203       14.92990       29.97764
C         98.83032       15.09251       30.35139
C         98.53149       14.54794       31.73351
O         97.41555       14.75366       32.19009
H        100.88889       15.46393       30.53432
H         98.14745       14.58491       29.63658
H         98.60052       16.17927       30.32720
N         99.42178       13.76662       32.42042
C         99.04096       13.02490       33.62396
C        100.18676       12.89096       34.60379
O        101.31864       13.19365       34.25641
C         98.69706       11.58392       33.17957
C         97.57278       11.57043       32.18230
C         97.83651       11.33954       30.82145
C         96.25729       11.81452       32.60019
C         96.79679       11.36455       29.89034
C         95.21600       11.82306       31.66920
C         95.48374       11.60282       30.30938
O         94.49018       11.62002       29.39918
H        100.31580       13.52075       31.97014
H         98.17532       13.50726       34.12984
H         98.43939       10.91851       34.03216
H         99.61278       11.16206       32.70489
H         98.84856       11.16450       30.47745
H         96.04121       11.99192       33.64660
H         97.01401       11.20227       28.84214
H         94.20382       12.00576       32.00563
H         93.56910       11.78051       29.64843
N         99.96064       12.32693       35.82666
C        101.02620       11.76871       36.65635
C        100.68885       10.31962       36.99548
O         99.57692        9.87385       36.74068
C        101.31759       12.60707       37.93555
C        100.10433       12.66711       38.89683
C        101.81911       14.00812       37.54034
C        100.43260       13.33125       40.23788
H         98.98339       12.16979       36.12022
H        101.96660       11.73703       36.06765
H        102.15209       12.10462       38.47458
H         99.77634       11.63160       39.13039
H         99.25715       13.20170       38.41687
H        102.70069       13.92134       36.87133
H        101.02611       14.58033       37.01505
H        102.15287       14.58393       38.42638
H        100.70582       14.39772       40.11053
H         99.54218       13.28998       40.89955
H        101.26777       12.79509       40.73894
N        101.62553        9.51906       37.56608
C        101.37911        8.13787       37.96636
C        101.72760        7.96286       39.43351
O        102.12026        8.92489       40.07346
C        102.21791        7.20653       37.07534
O        103.58261        7.49169       37.21250
H        102.57128        9.90134       37.71240
H        100.31146        7.85862       37.82713
H        101.90276        7.36588       36.01865
H        102.03092        6.14383       37.34212
H        104.04532        6.98050       36.49903
N        101.63400        6.74803       40.03722
C        102.10881        6.51513       41.39720
C        103.60194        6.79508       41.48060
O        104.02705        7.50789       42.37851
C        101.83414        5.06818       41.81787
H        101.25903        5.95300       39.49732
H        101.55858        7.16840       42.11211
H        102.18417        4.90455       42.86034
H        100.74145        4.86929       41.78571
H        102.35115        4.35000       41.14718
N        104.44834        6.28300       40.53978
C        105.89749        6.46575       40.55228
C        106.29985        7.92954       40.61907
O        107.00390        8.29559       41.55008
C        106.52017        5.80925       39.31201
H        104.03444        5.72955       39.77302
H        106.30740        5.94954       41.44886
H        107.62575        5.91273       39.33354
H        106.26990        4.72714       39.28816
H        106.13549        6.27750       38.38011
N        105.89307        8.82496       39.67480
C        106.25880       10.24229       39.71336
C        105.78425       10.86408       41.01342
O        106.61085       11.35803       41.76855
C        105.69650       10.98669       38.47644
C        106.43669       10.52494       37.20378
C        105.92929       11.13280       35.89787
O        104.61509       10.74629       35.62009
O        105.95983       12.53067       35.91812
H        105.29089        8.48316       38.91207
H        107.36828       10.33849       39.68375
H        105.85956       12.08102       38.59006
H        104.60421       10.80746       38.39466
H        106.37462        9.42320       37.09303
H        107.50968       10.79727       37.30608
N        104.47472       10.82926       41.36702
C        104.00484       11.32382       42.64222
H        102.91059       11.15624       42.73306
H        104.51124       10.77590       43.46706
H        104.21552       12.40931       42.73350
H        103.79724       10.41045       40.72344
Ca       104.03630       12.75673       34.73616
O        102.08438        9.93255       33.81880
H        101.26059        9.38438       33.78626
H        102.78637        9.34690       33.43943
O        105.05876        9.95749       31.84336
H        105.21257        9.12223       32.35220
H        104.91261        9.65763       30.91094

Ca 1.0



