%chk=holoCaM-CaMKII.loop3.water2.frame190.chk
%nprocshared=20
%mem=10GB
%nosave
#b3lyp/svp scf=(tight,noincore,xqc) Test 
#IOP(5/87=12) Density=Current Pop=(MK,readradii) iop(6/33=2) iop(6/42=6)

holoCaM-CaMKII.loop3.water2.frame190 

   0  1 
C         18.25074       58.77481       30.48131
C         18.82611       57.64036       31.27744
O         18.67205       57.63372       32.49018
H         17.15120       58.81150       30.62914
H         18.69890       59.73260       30.81869
H         18.45535       58.65309       29.39630
N         19.51252       56.64286       30.65358
C         20.09749       55.50374       31.34232
C         21.60159       55.58289       31.21738
O         22.21558       54.83469       30.46999
C         19.46795       54.20406       30.81044
C         20.05740       52.95791       31.42007
O         20.52835       52.11333       30.67818
O         20.08340       52.74690       32.75646
H         19.63826       56.69088       29.63046
H         19.87785       55.54412       32.41949
H         19.58789       54.15811       29.70561
H         18.38254       54.22074       31.03591
N         22.25414       56.50125       31.97873
C         23.70016       56.68337       31.99555
C         24.37696       55.41339       32.48763
O         25.20266       54.86475       31.77120
C         24.07584       57.88450       32.90090
C         23.45925       59.20324       32.38851
C         23.75021       60.37448       33.33576
C         23.11973       61.69935       32.86268
N         21.65420       61.64818       32.82498
H         21.67442       57.08433       32.60069
H         24.05432       56.91751       30.96634
H         25.18226       57.99563       32.93138
H         23.71669       57.69405       33.93611
H         22.36350       59.09125       32.31583
H         23.85585       59.43015       31.37514
H         24.85089       60.51366       33.40430
H         23.36524       60.13860       34.35234
H         23.51122       61.97038       31.85753
H         23.42671       62.49592       33.57585
H         21.27583       61.35489       33.75502
H         21.28685       62.60062       32.59947
H         21.31834       60.99709       32.08071
N         24.06101       54.88492       33.70684
C         24.68472       53.67686       34.25515
C         24.40698       52.39634       33.45080
O         25.01285       51.38133       33.76649
C         24.31443       53.51310       35.74735
C         22.83464       53.44026       35.98943
O         22.22540       54.38111       36.73602
O         22.17748       52.53616       35.51248
H         23.37373       55.39341       34.28308
H         25.78671       53.83103       34.22950
H         24.70720       54.39566       36.29808
H         24.80670       52.60958       36.16822
N         23.57283       52.37179       32.37047
C         23.47342       51.24160       31.45618
C         22.74994       50.01047       31.96784
O         22.68276       49.05665       31.20453
H         23.06997       53.22298       32.10394
H         24.49864       50.95741       31.13194
H         22.93777       51.57201       30.54290
N         22.19337       49.91867       33.21165
C         21.57914       48.67372       33.68147
C         20.31409       48.28944       32.91547
O         19.89364       47.14640       33.03056
C         21.34214       48.69598       35.20853
C         20.22350       49.60233       35.67188
N         19.24251       49.12335       36.47073
O         20.21273       50.78005       35.35553
H         22.27817       50.71334       33.85444
H         22.33930       47.87913       33.50580
H         22.28766       49.01773       35.69618
H         21.13072       47.66064       35.55370
H         19.23201       48.13791       36.77043
H         18.50119       49.74827       36.81514
N         19.63980       49.19207       32.14371
C         18.45784       48.87267       31.35624
C         17.19443       49.51559       31.89575
O         16.15776       49.35116       31.27072
H         19.96163       50.16618       32.11993
H         18.27323       47.77668       31.33021
H         18.63593       49.20549       30.31104
N         17.18065       50.18120       33.08812
C         15.95962       50.64749       33.73731
C         16.10094       52.08590       34.17755
O         17.09624       52.40017       34.81163
C         15.71343       49.79973       34.99728
C         15.52696       48.34358       34.66309
C         16.63306       47.48021       34.59272
C         14.24260       47.83783       34.41585
C         16.45532       46.12968       34.28431
C         14.06598       46.48717       34.10539
C         15.17284       45.62761       34.04043
O         15.01592       44.32196       33.74511
H         18.05379       50.27123       33.62497
H         15.06548       50.53047       33.08587
H         14.80526       50.17398       35.52028
H         16.54736       49.90965       35.71847
H         17.63181       47.85098       34.77523
H         13.37982       48.49083       34.46104
H         17.31565       45.47388       34.23533
H         13.06894       46.11118       33.91617
H         14.14549       43.93602       33.57202
N         15.09097       52.98618       33.97876
C         15.13014       54.33218       34.55392
C         14.08878       54.46853       35.65626
O         13.21313       53.62748       35.78632
C         14.98723       55.44274       33.47351
C         13.59936       55.40762       32.77842
C         16.13994       55.33088       32.46293
C         13.37313       56.56573       31.80414
H         14.24103       52.68138       33.48369
H         16.10809       54.48816       35.05653
H         15.08682       56.42507       33.98802
H         12.80681       55.48398       33.55349
H         13.45909       54.45204       32.23083
H         16.13314       56.17518       31.74541
H         17.11352       55.36553       32.99443
H         16.07331       54.37796       31.89646
H         13.49116       57.53896       32.32645
H         14.07412       56.51754       30.94682
H         12.34199       56.50604       31.39593
N         14.19266       55.50377       36.53577
C         13.29342       55.72779       37.66381
C         12.76988       57.15859       37.63063
O         13.08132       57.88754       36.70612
C         14.06850       55.44930       38.96370
O         15.16134       56.31694       39.08251
H         14.99176       56.14153       36.43470
H         12.43040       55.02815       37.63583
H         14.42555       54.39419       38.93423
H         13.40288       55.56847       39.84547
H         15.69069       55.99195       39.85626
N         11.97773       57.63722       38.63280
C         11.53621       59.02947       38.69319
C         12.72481       59.97116       38.80058
O         12.83204       60.89022       37.99948
C         10.61719       59.24262       39.90203
H         11.69867       56.99715       39.38952
H         10.94287       59.27251       37.78344
H          9.72656       58.58465       39.82030
H         11.14449       59.01285       40.85234
H         10.26966       60.29814       39.93250
N         13.66382       59.78635       39.77153
C         14.81470       60.66144       39.97915
C         15.65039       60.81300       38.72451
O         15.92028       61.93953       38.33232
C         15.69239       60.11713       41.11340
H         13.55173       58.97273       40.39747
H         14.45599       61.66843       40.29031
H         16.55341       60.79667       41.29268
H         15.10198       60.04935       42.05183
H         16.08087       59.10625       40.86309
N         16.08138       59.72008       38.03503
C         16.90376       59.81335       36.83024
C         16.20586       60.66524       35.78365
O         16.77033       61.66482       35.36144
C         17.21147       58.41591       36.24858
C         18.00395       57.51875       37.21753
C         18.27747       56.18568       36.58660
O         17.84331       55.16165       37.08831
O         19.00385       56.12274       35.45728
H         15.78989       58.79488       38.37850
H         17.87437       60.29275       37.09054
H         17.81099       58.54597       35.32007
H         16.26242       57.91512       35.97197
H         17.43752       57.35817       38.15638
H         18.97068       58.00109       37.47464
N         14.95696       60.34149       35.35045
C         14.20110       61.12605       34.39684
H         13.26418       61.47867       34.87870
H         14.76351       62.01202       34.03608
H         13.93735       60.49160       33.52544
H         14.50303       59.50594       35.73257
Ca        19.33506       54.21021       34.31028
O         20.54867       52.43662       38.40879
H         21.34439       52.68407       38.94351
H         20.34313       51.50798       38.68368
O         17.60057       52.23986       37.63858
H         17.59597       51.70440       38.47078
H         16.67334       52.57650       37.55261

Ca 1.0



