%chk=holoCaM-CaMKII.loop3.water1.frame429.chk
%nprocshared=20
%mem=10GB
%nosave
#b3lyp/svp scf=(tight,noincore,xqc) Test 
#IOP(5/87=12) Density=Current Pop=(MK,readradii) iop(6/33=2) iop(6/42=6)

holoCaM-CaMKII.loop3.water1.frame429 

   0  1 
C         67.59593       70.83614       34.43954
C         66.62886       70.90337       35.58465
O         66.57303       71.93514       36.23997
H         68.63424       70.96001       34.80877
H         67.51615       69.87094       33.89702
H         67.36600       71.65481       33.72338
N         65.81177       69.84784       35.86823
C         64.76085       69.89836       36.87621
C         64.97662       68.81339       37.91795
O         65.05747       67.65155       37.53555
C         63.41157       69.68178       36.16304
C         62.27944       70.29143       36.92447
O         62.07254       70.03886       38.22582
O         61.57042       71.11503       36.36841
H         65.89437       68.98904       35.30138
H         64.75251       70.90219       37.35830
H         63.24035       68.60275       35.96067
H         63.43021       70.19897       35.17743
N         65.08452       69.09685       39.24887
C         65.31900       68.04724       40.23717
C         64.19821       67.01615       40.28099
O         64.50000       65.84716       40.46447
C         65.63294       68.58608       41.65638
C         64.48332       69.28748       42.40330
C         64.95537       69.70465       43.81239
C         63.91612       70.49456       44.62847
N         62.73125       69.70244       44.95433
H         65.03316       70.07980       39.55788
H         66.25464       67.51951       39.93958
H         66.49680       69.28329       41.58182
H         65.95468       67.71908       42.27626
H         63.62436       68.59404       42.49525
H         64.16624       70.18165       41.83620
H         65.84840       70.35732       43.70293
H         65.25649       68.80170       44.38876
H         63.61905       71.41224       44.07546
H         64.39537       70.81030       45.58183
H         62.08122       70.28098       45.53450
H         62.23348       69.42749       44.08706
H         62.99736       68.84508       45.48965
N         62.88548       67.38651       40.17804
C         61.77519       66.45244       40.37596
C         60.87081       66.28958       39.15009
O         59.93066       65.50764       39.24017
C         61.01254       66.88006       41.64896
C         60.35474       68.22448       41.53641
O         59.39429       68.36777       40.81301
O         60.78229       69.26909       42.26180
H         62.66249       68.37835       40.02462
H         62.16929       65.43503       40.58686
H         61.74891       66.91331       42.48081
H         60.23917       66.12826       41.91677
N         61.10375       66.92207       37.96152
C         60.32439       66.66103       36.75308
C         58.86939       67.10671       36.79084
O         58.15650       66.79206       35.84853
H         61.91869       67.54315       37.87096
H         60.35554       65.56714       36.55492
H         60.80021       67.17055       35.88720
N         58.35113       67.83971       37.81718
C         56.93892       68.22331       37.89671
C         56.50860       69.19337       36.80789
O         55.32027       69.48565       36.75083
C         56.59856       68.85747       39.27132
C         57.19020       70.24117       39.44623
N         56.40275       71.31678       39.68212
O         58.39362       70.39496       39.36186
H         58.97569       68.09492       38.58038
H         56.34446       67.28629       37.81226
H         56.94818       68.18575       40.08251
H         55.49339       68.93033       39.36860
H         55.38063       71.22215       39.76092
H         56.82070       72.25387       39.78864
N         57.39632       69.76706       35.94270
C         56.99664       70.76053       34.96774
C         57.84738       72.00219       35.08063
O         58.37732       72.41460       34.05823
H         58.39462       69.51825       35.97167
H         55.92851       71.04281       35.08517
H         57.11147       70.33332       33.94682
N         58.00625       72.67435       36.26580
C         58.73718       73.94094       36.34612
C         59.95659       73.88677       37.30778
O         59.57567       73.54265       38.61215
C         57.73777       75.09901       36.59110
C         57.08445       75.19226       37.95282
C         57.80596       75.67121       39.06127
C         55.72415       74.87692       38.11426
C         57.18809       75.82084       40.30323
C         55.10585       75.02654       39.36074
C         55.83347       75.50148       40.45725
O         55.22044       75.65930       41.64747
H         57.55193       72.30749       37.11594
H         59.17335       74.16876       35.35033
H         56.95050       74.98590       35.81253
H         58.22798       76.07478       36.38955
H         58.84401       75.95404       38.96720
H         55.13869       74.52076       37.27585
H         57.76192       76.19854       41.14038
H         54.05654       74.78442       39.47146
H         55.68612       76.00581       42.42235
N         60.66089       75.18069       37.31070
C         61.93392       75.24062       38.06145
C         61.97457       76.54631       38.83380
O         61.73290       77.59732       38.25586
C         63.22439       75.09112       37.17901
C         63.39008       76.18429       36.08284
C         63.30416       73.67972       36.58609
C         64.76388       76.17142       35.40965
H         60.75929       75.57272       36.34919
H         61.97449       74.41959       38.81299
H         64.08553       75.19351       37.87701
H         63.30429       77.18864       36.53719
H         62.61111       76.08555       35.29935
H         63.24045       72.93179       37.40340
H         62.48178       73.51358       35.86080
H         64.27180       73.50713       36.07536
H         64.94158       75.23271       34.84988
H         64.82217       77.01175       34.68541
H         65.56279       76.30928       36.16974
N         62.29812       76.55491       40.15671
C         62.42279       77.78440       40.92963
C         63.82917       78.35756       40.82531
O         64.68532       77.75799       40.18783
C         62.03404       77.51150       42.39388
O         62.92685       76.59649       42.97624
H         62.54307       75.66353       40.61131
H         61.71143       78.54372       40.53575
H         60.98859       77.12135       42.40994
H         62.04605       78.44736       42.98975
H         62.38730       75.90650       43.44242
N         64.13218       79.53473       41.44276
C         65.46428       80.13516       41.45240
C         66.47061       79.20894       42.10357
O         67.57615       79.08663       41.59956
C         65.44308       81.46660       42.20626
H         63.37593       80.02241       41.94804
H         65.78598       80.35664       40.40916
H         65.13179       81.31789       43.26205
H         66.45350       81.92962       42.18860
H         64.73293       82.16463       41.71380
N         66.13168       78.49510       43.21476
C         67.00787       77.50118       43.82398
C         67.34788       76.40585       42.82576
O         68.52506       76.14583       42.61334
C         66.33107       76.88940       45.05740
H         65.19302       78.63617       43.61792
H         67.94322       77.99452       44.17144
H         67.00584       76.14850       45.53713
H         66.10778       77.68709       45.79812
H         65.37982       76.38497       44.78375
N         66.36297       75.73573       42.15690
C         66.63206       74.66568       41.19318
C         67.43198       75.13676       39.98012
O         67.88329       74.29054       39.22062
C         65.31900       74.04453       40.66897
C         64.47298       73.38008       41.76328
C         63.20977       72.82197       41.17483
O         63.26351       71.98573       40.28843
O         62.01078       73.24365       41.61945
H         65.38713       75.99852       42.35442
H         67.22429       73.88060       41.71443
H         65.56254       73.26643       39.91078
H         64.72603       74.84019       40.16967
H         64.20169       74.10977       42.55278
H         65.05421       72.55772       42.23083
N         67.62451       76.45554       39.70780
C         68.38358       76.91445       38.56676
H         69.43069       76.55243       38.63931
H         67.92046       76.54540       37.62787
H         68.39368       78.02583       38.54583
H         67.20476       77.16518       40.30988
Ca        60.72135       71.63759       38.99441
O         59.03761       72.12139       41.77551
H         59.53983       71.98618       42.61784
H         58.14893       72.44806       42.06492

Ca 1.0



