%chk=holoCaM.loop1.water2.frame130.chk
%nprocshared=20
%mem=10GB
%nosave
#b3lyp/svp scf=(tight,noincore,xqc) Test 
#IOP(5/87=12) Density=Current Pop=(MK,readradii) iop(6/33=2) iop(6/42=6)

holoCaM.loop1.water2.frame130 

   0  1 
C         -7.01182       68.11779       -2.82649
C         -6.36982       66.88518       -3.37443
O         -6.91351       66.32106       -4.31461
H         -8.03636       67.87034       -2.47858
H         -6.42960       68.53569       -1.98078
H         -7.07588       68.87935       -3.63269
N         -5.19455       66.41139       -2.86424
C         -4.55573       65.24102       -3.43916
C         -5.42733       64.01574       -3.17189
O         -5.60430       63.64515       -2.01889
C         -3.13095       65.03440       -2.88999
C         -2.38158       64.05211       -3.74156
O         -2.89092       63.67707       -4.93371
O         -1.28802       63.65106       -3.39044
H         -4.73059       66.92195       -2.09743
H         -4.46436       65.45361       -4.52887
H         -3.18793       64.68360       -1.83553
H         -2.55541       65.98506       -2.90936
N         -6.08601       63.41137       -4.19667
C         -7.18887       62.47484       -3.98750
C         -6.75523       61.02855       -3.74500
O         -7.58552       60.25209       -3.29403
C         -8.16405       62.63084       -5.17154
C         -9.56339       62.04812       -4.95325
C        -10.48345       62.52612       -6.08769
C        -11.94425       62.13793       -5.84964
N        -12.80005       62.70417       -6.89308
H         -5.97393       63.84141       -5.12230
H         -7.73267       62.82557       -3.08055
H         -7.70798       62.23607       -6.10664
H         -8.30742       63.72827       -5.29948
H         -9.96031       62.44326       -3.99257
H         -9.53607       60.93869       -4.90518
H        -10.13076       62.11789       -7.06055
H        -10.43953       63.63727       -6.13594
H        -12.27188       62.53648       -4.86324
H        -12.04463       61.03084       -5.83652
H        -13.79483       62.44950       -6.69904
H        -12.71806       63.74791       -6.89676
H        -12.52486       62.32940       -7.82972
N         -5.48861       60.59046       -4.01435
C         -5.01296       59.23038       -3.71321
C         -3.81821       59.25133       -2.75588
O         -3.36101       58.18272       -2.37485
C         -4.70477       58.45699       -5.02672
C         -3.61582       59.08091       -5.85589
O         -3.43075       58.73214       -7.01044
O         -2.86076       60.04180       -5.30792
H         -4.83525       61.25096       -4.45730
H         -5.81305       58.65551       -3.19775
H         -5.64295       58.45457       -5.62344
H         -4.43435       57.39886       -4.81685
N         -3.27572       60.42262       -2.30301
C         -2.20250       60.48986       -1.32962
C         -0.90256       59.90352       -1.82156
O         -0.39052       59.00039       -1.17517
H         -3.65893       61.32709       -2.60728
H         -2.52749       59.98123       -0.39586
H         -2.00954       61.55681       -1.08078
N         -0.27715       60.41269       -2.92245
C          1.05670       59.98926       -3.34877
C          2.07838       61.12653       -3.23743
O          3.24684       60.87920       -3.49924
C          1.00302       59.34884       -4.75615
C          0.63020       60.26624       -5.88784
O          0.42580       61.57508       -5.68441
O          0.52982       59.81765       -7.01816
H         -0.75274       61.15698       -3.45195
H          1.42858       59.19082       -2.67088
H          0.26431       58.51861       -4.72360
H          1.99748       58.91396       -4.99463
N          1.72102       62.38429       -2.83071
C          2.65606       63.47829       -2.61762
C          2.46408       64.63026       -3.58618
O          3.12699       65.64157       -3.39704
H          0.74143       62.59633       -2.61937
H          3.71125       63.14297       -2.71108
H          2.51452       63.84342       -1.57730
N          1.66821       64.52974       -4.69347
C          1.63121       65.54579       -5.74541
C          0.21707       65.80782       -6.25540
O         -0.70209       65.08478       -5.90633
C          2.53217       65.09313       -6.92549
C          4.01010       64.96967       -6.52779
O          2.07666       63.88230       -7.47644
H          1.18337       63.64547       -4.86929
H          2.02407       66.50948       -5.35163
H          2.48892       65.86318       -7.72435
H          2.30493       63.14579       -6.85098
H          4.60899       64.67380       -7.41462
H          4.38731       65.94242       -6.14934
H          4.15232       64.19628       -5.74351
N         -0.01760       66.85780       -7.09509
C         -1.31888       67.19712       -7.67081
C         -1.18494       67.28141       -9.19445
O         -0.36299       68.04114       -9.68847
C         -1.84963       68.51374       -7.01267
C         -2.25070       68.19935       -5.53871
C         -3.04955       69.09873       -7.77980
C         -2.81433       69.38045       -4.74617
H          0.77242       67.48347       -7.31872
H         -2.07333       66.41193       -7.44570
H         -1.04763       69.28429       -7.03913
H         -1.36286       67.82170       -4.98965
H         -3.02477       67.39862       -5.53035
H         -3.37218       70.06481       -7.34237
H         -2.77389       69.32795       -8.82854
H         -3.90196       68.39750       -7.76199
H         -3.04480       69.04601       -3.71161
H         -2.07749       70.20790       -4.70251
H         -3.76652       69.74575       -5.18313
N         -2.00854       66.53970       -9.99451
C         -2.02394       66.58555      -11.45917
C         -3.01520       67.63502      -11.94114
O         -3.60162       68.31829      -11.12266
C         -2.41857       65.19301      -12.04288
C         -1.42988       64.08525      -11.66994
O         -3.73724       64.84414      -11.68633
H         -2.74056       65.98746       -9.53510
H         -1.01710       66.85674      -11.84670
H         -2.38770       65.23690      -13.15007
H         -3.72354       64.39339      -10.80326
H         -0.40918       64.34385      -12.02178
H         -1.42072       63.94278      -10.57596
H         -1.74084       63.13028      -12.14586
N         -3.27388       67.80333      -13.26834
C         -4.30193       68.71277      -13.77612
C         -5.67528       68.33799      -13.22836
O         -6.36292       69.20159      -12.70239
C         -4.34936       68.69925      -15.32770
C         -3.06107       69.24736      -15.94909
O         -4.58181       67.39664      -15.80256
H         -2.74554       67.23433      -13.94396
H         -4.06884       69.75607      -13.46353
H         -5.18438       69.37332      -15.63716
H         -5.05397       67.48093      -16.67160
H         -2.88298       70.28741      -15.60317
H         -2.18360       68.62305      -15.68341
H         -3.15844       69.25818      -17.05542
N         -6.12696       67.05535      -13.31919
C         -7.45193       66.60914      -12.89080
C         -7.71077       66.95334      -11.43463
O         -8.71512       67.58443      -11.13648
C         -7.56005       65.08195      -13.11895
C         -8.96776       64.51486      -12.88176
C         -8.97460       63.00025      -13.15687
C        -10.35524       62.34352      -12.99288
N        -11.31953       62.81755      -13.98817
H         -5.48661       66.35361      -13.72098
H         -8.21717       67.10895      -13.52595
H         -6.82644       64.55421      -12.46925
H         -7.29324       64.87165      -14.17846
H         -9.66660       65.03438      -13.56932
H         -9.28858       64.69771      -11.83319
H         -8.27580       62.51394      -12.44084
H         -8.60668       62.79885      -14.18698
H        -10.74650       62.52087      -11.96712
H        -10.22617       61.24579      -13.12468
H        -12.20787       62.27613      -13.88424
H        -11.53605       63.82889      -13.84601
H        -10.94649       62.66367      -14.95348
N         -6.82556       66.56914      -10.47793
C         -6.99754       66.82609       -9.04941
C         -7.10744       68.32460       -8.79738
O         -8.09943       68.76230       -8.23120
C         -5.83386       66.17554       -8.25474
C         -5.83378       64.63824       -8.43616
C         -4.67998       63.94597       -7.76966
O         -4.90551       62.89713       -6.96067
O         -3.53152       64.25557       -8.03418
H         -5.97836       66.08039      -10.79888
H         -7.93873       66.34751       -8.69700
H         -5.93168       66.41478       -7.17268
H         -4.87264       66.58590       -8.62412
H         -5.76309       64.37807       -9.50776
H         -6.78780       64.21878       -8.04999
N         -6.14897       69.17634       -9.24463
C         -6.23648       70.61390       -9.10454
H         -5.35475       71.09287       -9.58448
H         -7.15187       70.99009       -9.61020
H         -6.25573       70.89577       -8.03191
H         -5.34087       68.78990       -9.73284
Ca        -2.21172       61.96264       -6.18574
O         -0.38828       62.87876       -8.49284
H          0.06872       63.64804       -8.91632
H         -0.14680       62.10610       -9.06240
O         -2.91316       61.15138       -9.19913
H         -2.19819       60.69726       -9.71186
H         -3.65324       60.49467       -9.17080

Ca 1.0



