%chk=holoCaM.loop1.water2.frame265.chk
%nprocshared=20
%mem=10GB
%nosave
#b3lyp/svp scf=(tight,noincore,xqc) Test 
#IOP(5/87=12) Density=Current Pop=(MK,readradii) iop(6/33=2) iop(6/42=6)

holoCaM.loop1.water2.frame265 

   0  1 
C         25.90549       20.87568       63.00853
C         25.19791       21.02108       61.69645
O         25.53965       21.90243       60.92127
H         26.71291       21.63146       63.10709
H         25.17977       21.00840       63.83748
H         26.35505       19.86186       63.07600
N         24.20415       20.15374       61.36829
C         23.50560       20.20444       60.09281
C         22.63648       21.46413       60.02009
O         21.84971       21.67113       60.93325
C         22.63888       18.93515       59.92536
C         22.21497       18.73787       58.50170
O         22.76293       19.48661       57.52976
O         21.43439       17.84814       58.21316
H         23.97587       19.40028       62.03666
H         24.27947       20.18528       59.29482
H         21.75502       18.99581       60.59702
H         23.22149       18.02738       60.19674
N         22.71246       22.33929       58.97097
C         21.98544       23.61394       58.92037
C         20.82810       23.66183       57.93283
O         20.12599       24.66508       57.94843
C         22.97303       24.76119       58.63298
C         23.96551       25.12509       59.76050
C         23.30313       25.83626       60.96327
C         22.78488       24.91610       62.08473
N         21.98730       25.68132       63.04277
H         23.32869       22.10532       58.18255
H         21.45050       23.79619       59.85856
H         22.41445       25.69321       58.39584
H         23.54355       24.49445       57.71491
H         24.62578       25.88791       59.29138
H         24.61866       24.28339       60.07254
H         22.49945       26.50248       60.57961
H         24.06109       26.49017       61.44731
H         23.65447       24.44587       62.59454
H         22.15855       24.09295       61.72846
H         21.12922       26.04573       62.56513
H         21.68737       25.05338       63.82292
H         22.53796       26.48017       63.43062
N         20.50252       22.62968       57.11247
C         19.25998       22.60163       56.33581
C         18.38057       21.47359       56.86093
O         17.23228       21.74976       57.18227
C         19.51424       22.65335       54.80885
C         20.54352       21.69324       54.31858
O         20.33621       20.37548       54.37928
O         21.62961       22.11107       53.95102
H         21.11836       21.80562       57.08540
H         18.65896       23.52458       56.50478
H         19.90584       23.67426       54.59721
H         18.56477       22.54083       54.24260
N         18.86901       20.22005       57.09898
C         18.09513       19.18069       57.76754
C         17.94629       17.91866       56.95080
O         17.30813       16.99720       57.44075
H         19.84823       20.00400       56.87448
H         17.07437       19.53625       58.02447
H         18.60631       18.92334       58.72073
N         18.48264       17.78980       55.70284
C         18.29310       16.59988       54.87954
C         18.89210       15.32621       55.48125
O         18.60550       14.26160       54.95247
C         18.80291       16.84846       53.43772
C         20.27850       17.12703       53.31936
O         20.76170       17.36818       52.22549
O         21.07380       17.12691       54.39921
H         18.99092       18.58184       55.29685
H         17.19482       16.43858       54.80309
H         18.26082       17.72909       53.02818
H         18.56061       15.96984       52.80421
N         19.71318       15.34410       56.57431
C         20.20354       14.14182       57.23552
C         21.70618       13.96752       57.14820
O         22.20085       13.02650       57.75324
H         19.99573       16.24242       56.98346
H         19.74380       13.22450       56.80896
H         19.90329       14.19628       58.30402
N         22.49080       14.77401       56.37507
C         23.92604       14.56703       56.18753
C         24.70922       15.83336       56.50288
O         24.10423       16.86339       56.76819
C         24.19908       14.09067       54.73804
C         23.49837       12.75806       54.42882
O         23.83189       15.06864       53.79739
H         22.05032       15.53100       55.84498
H         24.29117       13.77545       56.87834
H         25.28845       13.90904       54.62189
H         22.84154       15.09474       53.74013
H         23.83368       11.97389       55.13968
H         22.39436       12.86050       54.50533
H         23.74692       12.43397       53.39649
N         26.07624       15.81195       56.53032
C         26.89249       16.97311       56.87797
C         27.90022       17.25291       55.76830
O         28.80124       16.45072       55.56192
C         27.58900       16.72401       58.25341
C         26.51050       16.57265       59.36215
C         28.57766       17.85515       58.60346
C         27.06830       16.16898       60.72784
H         26.56134       14.91933       56.34988
H         26.25213       17.87043       56.99370
H         28.16883       15.77602       58.18255
H         25.79346       15.77550       59.07472
H         25.94324       17.52444       59.46652
H         28.05346       18.83043       58.67991
H         29.10655       17.64908       59.55458
H         29.37263       17.92878       57.83681
H         27.60816       15.20158       60.64869
H         27.74616       16.94053       61.14264
H         26.22722       16.04686       61.44282
N         27.80926       18.39252       55.01986
C         28.80872       18.77729       54.01830
C         30.07802       19.28133       54.69660
O         30.10332       19.39989       55.90838
C         28.27044       19.89898       53.08146
C         27.07990       19.43459       52.23291
O         27.96416       21.06931       53.80228
H         26.99481       19.00298       55.17166
H         29.04628       17.89473       53.38357
H         29.05845       20.16765       52.34688
H         27.03424       21.00344       54.14050
H         27.36798       18.55819       51.61476
H         26.22605       19.15844       52.87841
H         26.76037       20.25531       51.55593
N         31.16708       19.63630       53.95905
C         32.35151       20.28302       54.52820
C         32.01457       21.65175       55.10649
O         32.42179       21.92102       56.22795
C         33.48515       20.42262       53.47774
C         34.14861       19.06991       53.20610
O         33.00872       20.95730       52.26807
H         31.13761       19.46488       52.94317
H         32.76765       19.66435       55.35627
H         34.30000       21.06588       53.88864
H         32.99308       21.94320       52.36575
H         34.58754       18.67215       54.14844
H         33.41930       18.33303       52.81212
H         34.97534       19.19353       52.47492
N         31.28121       22.56637       54.40551
C         30.99015       23.91525       54.89890
C         30.34371       23.86053       56.27308
O         30.83778       24.49587       57.19392
C         30.07370       24.66434       53.90356
C         29.91538       26.15099       54.26952
C         28.94692       26.86013       53.31487
C         28.85539       28.35947       53.63415
N         27.87057       29.01879       52.77684
H         30.90951       22.28738       53.48447
H         31.94948       24.47574       54.96899
H         29.07886       24.16737       53.86834
H         30.52137       24.61412       52.88652
H         30.91493       26.63718       54.21842
H         29.52289       26.25377       55.30425
H         27.94120       26.39712       53.41987
H         29.28994       26.73662       52.26427
H         29.85298       28.82926       53.48002
H         28.56187       28.50240       54.69776
H         27.85254       30.04064       52.99816
H         28.12261       28.89368       51.76962
H         26.92021       28.61955       52.95517
N         29.26080       23.06462       56.48174
C         28.61128       22.88239       57.77814
C         29.63010       22.44104       58.81479
O         29.77757       23.11529       59.82490
C         27.47392       21.84436       57.64469
C         26.31997       22.39108       56.77838
C         25.26515       21.36677       56.47474
O         25.36284       20.21984       56.87675
O         24.20279       21.71751       55.72594
H         28.92063       22.52000       55.67708
H         28.16899       23.84507       58.12065
H         27.06300       21.58876       58.64571
H         27.88917       20.91544       57.19233
H         26.69869       22.75516       55.80340
H         25.85029       23.24764       57.30849
N         30.40477       21.34499       58.60822
C         31.43753       20.93437       59.53231
H         32.18259       21.75070       59.65029
H         30.99267       20.68709       60.51805
H         31.96163       20.03791       59.13651
H         30.28130       20.80303       57.74953
Ca        22.03904       19.43974       55.43724
O         23.95354       20.77825       52.55837
H         23.72380       21.71862       52.35358
H         24.05440       20.35104       51.67100
O         23.95014       17.85881       53.21514
H         24.80653       17.36418       53.26271
H         23.71218       17.84599       52.25419

Ca 1.0



