%chk=holoCaM.loop1.water2.frame321.chk
%nprocshared=20
%mem=10GB
%nosave
#b3lyp/svp scf=(tight,noincore,xqc) Test 
#IOP(5/87=12) Density=Current Pop=(MK,readradii) iop(6/33=2) iop(6/42=6)

holoCaM.loop1.water2.frame321 

   0  1 
C         91.36705       43.87214      -24.31402
C         90.74644       42.76239      -25.09112
O         91.05054       42.63028      -26.27016
H         92.06708       44.44506      -24.96072
H         90.57558       44.54836      -23.93737
H         91.94072       43.44345      -23.46577
N         89.89884       41.87943      -24.48614
C         89.41196       40.73014      -25.21863
C         88.39104       41.15933      -26.26660
O         87.29935       41.58889      -25.92007
C         88.82329       39.64332      -24.30251
C         88.77699       38.33609      -25.03692
O         89.41797       38.20973      -26.21866
O         88.26259       37.36007      -24.51841
H         89.69819       41.97369      -23.47902
H         90.32545       40.29212      -25.68408
H         87.81530       39.94616      -23.94299
H         89.47554       39.47817      -23.41799
N         88.72500       41.11192      -27.57745
C         87.88215       41.57795      -28.67000
C         86.62037       40.73344      -28.85322
O         85.57001       41.32221      -29.06772
C         88.73356       41.63726      -29.96194
C         88.06805       42.42847      -31.10170
C         88.95355       42.54650      -32.36032
C         90.28951       43.27942      -32.11853
N         91.03154       43.44690      -33.36841
H         89.68191       40.81572      -27.79397
H         87.59251       42.63163      -28.45364
H         89.00063       40.61482      -30.30250
H         89.66566       42.17753      -29.69411
H         87.82534       43.45387      -30.74417
H         87.11946       41.92785      -31.38984
H         88.37624       43.11679      -33.12068
H         89.15823       41.53316      -32.76778
H         90.92324       42.70182      -31.41254
H         90.09272       44.28189      -31.67751
H         90.48428       44.03805      -34.03532
H         91.94096       43.92272      -33.16619
H         91.22798       42.51477      -33.80011
N         86.64513       39.36233      -28.81564
C         85.47853       38.52880      -29.14662
C         84.90602       37.70758      -27.98004
O         83.94511       36.98571      -28.21059
C         85.78436       37.67588      -30.39942
C         86.85468       36.63472      -30.24139
O         87.17741       35.95686      -31.20350
O         87.45047       36.42228      -29.05816
H         87.53486       38.89587      -28.58761
H         84.63238       39.18004      -29.45626
H         86.09091       38.36882      -31.21356
H         84.85658       37.15846      -30.72675
N         85.33635       37.85463      -26.69304
C         84.58383       37.33248      -25.55043
C         84.74862       35.86125      -25.19863
O         84.14997       35.45899      -24.20984
H         86.09561       38.52237      -26.49498
H         83.50555       37.56999      -25.68159
H         84.92269       37.88626      -24.64720
N         85.57040       35.00994      -25.87517
C         85.86473       33.64005      -25.40640
C         86.62682       33.60187      -24.05872
O         86.93637       32.50582      -23.61229
C         86.62939       32.82040      -26.49398
C         87.91718       33.45011      -26.92802
O         88.24143       34.62132      -26.38183
O         88.57279       32.98590      -27.84634
H         86.00786       35.35639      -26.73986
H         84.90390       33.10036      -25.25811
H         85.97735       32.75305      -27.39148
H         86.82492       31.78733      -26.13434
N         86.92438       34.72597      -23.33197
C         87.55031       34.69592      -22.01668
C         89.05882       34.58528      -22.05146
O         89.64693       34.57401      -20.97705
H         86.62578       35.64993      -23.65263
H         87.09829       33.88816      -21.39918
H         87.32871       35.65587      -21.50081
N         89.76256       34.50696      -23.21755
C         91.21851       34.39401      -23.27521
C         91.83081       35.49041      -24.14717
O         91.09492       36.23969      -24.77601
C         91.59951       32.97656      -23.76798
C         91.15281       31.89434      -22.76914
O         91.06765       32.71740      -25.04462
H         89.24999       34.49845      -24.10829
H         91.65392       34.52553      -22.25933
H         92.70487       32.90300      -23.83827
H         90.09377       32.54446      -24.95165
H         91.62482       32.06911      -21.77890
H         90.04890       31.89662      -22.63971
H         91.45891       30.89258      -23.13598
N         93.18432       35.67844      -24.17988
C         93.85542       36.74118      -24.93511
C         94.92391       36.13791      -25.84597
O         95.85577       35.51335      -25.35561
C         94.44141       37.79819      -23.94407
C         93.26283       38.54136      -23.25060
C         95.37187       38.80412      -24.65322
C         93.68188       39.59432      -22.22373
H         93.77411       35.06885      -23.59054
H         93.12794       37.28156      -25.57941
H         95.05659       37.26897      -23.18246
H         92.62395       37.80334      -22.72175
H         92.63802       39.04658      -24.02189
H         94.81746       39.39539      -25.40489
H         95.83860       39.49782      -23.92618
H         96.21820       38.28388      -25.14326
H         92.77177       40.04227      -21.77093
H         94.29247       39.13126      -21.42160
H         94.24812       40.42211      -22.69699
N         94.84220       36.30502      -27.19785
C         95.81565       35.79586      -28.16204
C         97.04820       36.69478      -28.21197
O         97.09416       37.70370      -27.52350
C         95.18415       35.72416      -29.58965
C         93.92540       34.86181      -29.63087
O         94.86374       37.00928      -30.04497
H         94.03558       36.81403      -27.56738
H         96.10071       34.75853      -27.87976
H         95.92370       35.26219      -30.28052
H         94.75483       36.95554      -31.03066
H         93.55297       34.79834      -30.67551
H         94.13528       33.83803      -29.26098
H         93.13227       35.32851      -29.01915
N         98.06206       36.41332      -29.07901
C         99.18318       37.31607      -29.33846
C         98.67196       38.64976      -29.86004
O         99.13804       39.68752      -29.41227
C        100.15815       36.71678      -30.38778
C        100.83502       35.43870      -29.88622
O         99.48222       36.44787      -31.59202
H         97.99979       35.54505      -29.62854
H         99.76466       37.48796      -28.40468
H        100.96124       37.47474      -30.55983
H        100.12111       36.61404      -32.33367
H        101.55381       35.07524      -30.65083
H        101.39289       35.64496      -28.94862
H        100.09453       34.63505      -29.69649
N         97.71213       38.67941      -30.82628
C         97.19686       39.90334      -31.42996
C         96.53682       40.78326      -30.38376
O         96.90474       41.94142      -30.24586
C         96.17062       39.59406      -32.55806
C         96.63234       38.56645      -33.61574
C         97.99987       38.88192      -34.23202
C         98.40700       37.79331      -35.23340
N         99.74023       38.05482      -35.77273
H         97.34036       37.77622      -31.14420
H         98.04328       40.45551      -31.89461
H         95.92744       40.55324      -33.06628
H         95.22603       39.19724      -32.12664
H         95.85972       38.51559      -34.41394
H         96.67816       37.55577      -33.16081
H         98.76841       38.90539      -33.43087
H         97.96754       39.87227      -34.73463
H         97.66877       37.75311      -36.06458
H         98.41410       36.80351      -34.72245
H         99.75366       38.97552      -36.26799
H        100.44425       38.05933      -34.99856
H         99.99009       37.29816      -36.44946
N         95.54113       40.27255      -29.60620
C         94.80460       41.03386      -28.60103
C         95.71571       41.50486      -27.46875
O         95.29261       42.35483      -26.69794
C         93.63570       40.18425      -28.02399
C         92.65452       39.69941      -29.11737
C         91.58834       38.77684      -28.59435
O         91.91301       37.68502      -27.88638
O         90.42348       38.95156      -28.89852
H         95.30163       39.29058      -29.75307
H         94.37659       41.92875      -29.10534
H         93.07761       40.77280      -27.26254
H         94.07377       39.29258      -27.52834
H         93.19411       39.11028      -29.87841
H         92.19014       40.57074      -29.62782
N         96.96949       40.99014      -27.29940
C         97.90261       41.42694      -26.28242
H         98.84122       41.76142      -26.77519
H         97.50800       42.26666      -25.67527
H         98.14190       40.57543      -25.61142
H         97.29401       40.23394      -27.90907
Ca        89.42185       36.25592      -27.21983
O         91.28699       34.27295      -27.78661
H         91.76048       34.14955      -26.92823
H         91.50605       33.46840      -28.31835
O         90.74979       35.87903      -30.28941
H         89.77421       35.90022      -30.44713
H         91.03770       35.00725      -30.65922

Ca 1.0



