%chk=holoCaM.loop1.water2.frame496.chk
%nprocshared=20
%mem=10GB
%nosave
#b3lyp/svp scf=(tight,noincore,xqc) Test 
#IOP(5/87=12) Density=Current Pop=(MK,readradii) iop(6/33=2) iop(6/42=6)

holoCaM.loop1.water2.frame496 

   0  1 
C         88.29524       99.47817       14.35212
C         87.47792      100.43079       13.54157
O         88.03828      101.07600       12.66563
H         89.11314      100.03596       14.85346
H         87.67838       98.96850       15.11984
H         88.73487       98.71368       13.67687
N         86.13439      100.55636       13.74553
C         85.33716      101.44880       12.92419
C         85.68812      102.89263       13.28271
O         85.37445      103.30750       14.39118
C         83.82460      101.18572       13.12654
C         83.02197      101.85323       12.05445
O         81.81258      101.96241       12.16174
O         83.64102      102.24377       10.92565
H         85.67228       99.96611       14.45430
H         85.59211      101.20331       11.86824
H         83.51755      101.55143       14.13143
H         83.59152      100.10024       13.07448
N         86.40750      103.68754       12.43596
C         87.01703      104.94102       12.87749
C         86.16393      106.18197       12.59931
O         86.53487      107.23701       13.09107
C         88.44414      105.04930       12.27462
C         89.36708      106.11986       12.89584
C         89.65696      105.84488       14.38274
C         90.64987      106.85193       14.97069
N         90.90748      106.55489       16.38070
H         86.76021      103.25373       11.57694
H         87.13273      104.86697       13.97557
H         88.35712      105.22485       11.17949
H         88.95942      104.07230       12.41299
H         88.94735      107.13697       12.76240
H         90.33185      106.08647       12.34323
H         90.08028      104.82128       14.48639
H         88.72345      105.91054       14.97626
H         90.23169      107.87907       14.88169
H         91.60703      106.80822       14.40540
H         91.57954      107.25737       16.76441
H         90.01742      106.60444       16.92852
H         91.32397      105.59993       16.47696
N         85.00738      106.14890       11.86426
C         84.15130      107.33301       11.67782
C         82.79762      107.15991       12.36941
O         82.00448      108.09169       12.34540
C         84.04347      107.70249       10.17429
C         83.31492      106.69796        9.32958
O         82.56198      105.75808        9.91348
O         83.40391      106.73515        8.11328
H         84.70651      105.25812       11.44300
H         84.62064      108.21535       12.16320
H         85.08552      107.78888        9.79480
H         83.55208      108.68954       10.03647
N         82.48986      106.02104       13.05858
C         81.29270      105.84991       13.86035
C         80.01045      105.80059       13.06706
O         79.10744      106.56871       13.36527
H         83.16373      105.24365       13.09788
H         81.24810      106.65107       14.63059
H         81.36834      104.87841       14.39605
N         79.83553      104.86739       12.08869
C         78.55413      104.62498       11.42565
C         78.08961      103.17340       11.62354
O         77.09384      102.78861       11.02607
C         78.61455      105.06629        9.94774
C         79.51893      104.27676        9.05357
O         80.16796      103.19225        9.50196
O         79.64553      104.61325        7.88805
H         80.63759      104.27387       11.83159
H         77.76276      105.26940       11.86796
H         78.93915      106.13000        9.92565
H         77.59206      105.01575        9.51365
N         78.71333      102.33751       12.51155
C         78.24285      100.99964       12.84644
C         78.63441       99.89505       11.87687
O         78.30796       98.75551       12.17427
H         79.48120      102.70219       13.09197
H         77.14354      101.01721       13.01193
H         78.70872      100.71354       13.81543
N         79.34266      100.12203       10.73252
C         79.79214       99.05145        9.83360
C         81.30174       99.07076        9.64051
O         81.96439      100.01482       10.03558
C         79.08954       99.16197        8.45192
C         77.68679       98.56224        8.49894
O         79.00125      100.49744        8.02545
H         79.58608      101.08707       10.48871
H         79.57360       98.05305       10.27157
H         79.63081       98.56515        7.68332
H         79.92355      100.85526        8.00131
H         77.05269       99.07084        9.25274
H         77.21132       98.64820        7.49814
H         77.75804       97.48026        8.74794
N         81.90603       98.00080        9.04155
C         83.33693       97.89499        8.77638
C         83.53977       97.65699        7.28811
O         83.13620       96.62058        6.77871
C         83.95569       96.75581        9.65293
C         84.01912       97.23934       11.12844
C         85.35130       96.32295        9.15942
C         84.57276       96.20924       12.11559
H         81.31660       97.19933        8.76875
H         83.85788       98.84170        9.04006
H         83.30586       95.85517        9.57578
H         82.99744       97.51278       11.46698
H         84.65853       98.14895       11.19121
H         86.06967       97.15963        9.21224
H         85.73705       95.47080        9.75218
H         85.30317       95.94229        8.12005
H         84.55425       96.63881       13.13942
H         83.95674       95.28667       12.09984
H         85.62973       95.95711       11.89282
N         84.17530       98.59665        6.53199
C         84.49490       98.41554        5.11934
C         85.66584       97.45156        4.96785
O         86.22562       97.01772        5.96499
C         84.84387       99.77805        4.44624
C         83.68465      100.78178        4.52368
O         86.02482      100.33196        4.97153
H         84.43766       99.47687        6.98494
H         83.59896       98.01438        4.59599
H         85.02086       99.60967        3.36370
H         85.80393      100.82095        5.80421
H         83.96257      101.72047        3.99879
H         82.77570      100.36045        4.04592
H         83.45454      101.03065        5.57903
N         86.12410       97.11031        3.73111
C         87.32366       96.29986        3.52163
C         88.53134       97.00158        4.12498
O         89.38995       96.34304        4.69368
C         87.56030       96.06583        2.00969
C         88.73866       95.11445        1.75762
O         86.40374       95.50364        1.44486
H         85.62335       97.47502        2.90684
H         87.18046       95.30525        4.00117
H         87.77402       97.05393        1.53388
H         86.37820       95.79052        0.49439
H         88.87469       94.96366        0.66635
H         89.68517       95.52455        2.16658
H         88.54068       94.12735        2.22907
N         88.64700       98.35492        4.02219
C         89.76392       99.12923        4.55022
C         89.85892       98.96315        6.06252
O         90.89989       98.56688        6.56672
C         89.55829      100.61861        4.17045
C         90.85217      101.44383        4.18595
C         90.61968      102.93103        3.83681
C         89.79847      103.21008        2.55685
N         90.39025      102.62628        1.35202
H         87.89598       98.86036        3.52794
H         90.69134       98.76825        4.05198
H         88.77382      101.08408        4.80608
H         89.19877      100.64420        3.12266
H         91.55215      101.00090        3.44406
H         91.33700      101.39256        5.18452
H         91.61207      103.42558        3.75152
H         90.07601      103.40837        4.68032
H         89.72283      104.31232        2.42567
H         88.76025      102.83190        2.68165
H         89.79382      102.87976        0.53059
H         91.35340      103.00176        1.20187
H         90.42081      101.58454        1.41722
N         88.77228       99.24232        6.83977
C         88.73782       99.14121        8.30026
C         88.84537       97.69665        8.79179
O         88.94653       97.49997        9.99526
C         87.42562       99.77723        8.83694
C         87.31535      101.26954        8.45591
C         85.97849      101.86294        8.79333
O         85.90766      103.01835        9.46933
O         84.95168      101.36153        8.37086
H         87.92458       99.55695        6.35397
H         89.59468       99.71835        8.71307
H         87.36573       99.68283        9.94452
H         86.56951       99.22584        8.39221
H         87.43247      101.39929        7.36602
H         88.12637      101.84696        8.94980
N         88.81641       96.63517        7.93692
C         88.93497       95.26325        8.38024
H         89.91136       95.10949        8.88571
H         88.10844       95.01057        9.07519
H         88.88103       94.57975        7.50435
H         88.69422       96.78890        6.93379
Ca        82.79863      103.62323        9.41920
O         81.35425      102.34262        6.39073
H         80.41439      102.60487        6.54583
H         81.43530      102.33162        5.40517
O         84.16355      103.80649        6.44688
H         83.89115      104.34347        5.66094
H         84.55289      104.46470        7.07552

Ca 1.0



