%chk=holoCaM-CaMKII.loop4.water1.frame18.chk
%nprocshared=20
%mem=10GB
%nosave
#b3lyp/svp scf=(tight,noincore,xqc) Test 
#IOP(5/87=12) Density=Current Pop=(MK,readradii) iop(6/33=2) iop(6/42=6)

holoCaM-CaMKII.loop4.water1.frame18 

   -3  1 
C         29.29454       54.46632       32.80323
C         28.02773       54.49248       33.60459
O         27.50910       55.56378       33.88298
H         30.09316       53.96592       33.39117
H         29.12798       53.89841       31.86348
H         29.62608       55.49487       32.54938
N         27.46389       53.32163       34.00162
C         26.23775       53.24719       34.78497
C         26.45985       53.84538       36.16715
O         27.31615       53.35043       36.88766
C         25.81182       51.76870       34.90253
C         24.51576       51.56049       35.62248
O         24.10546       50.42703       35.78525
O         23.80201       52.59560       36.09532
H         27.92548       52.44418       33.71188
H         25.43353       53.79194       34.24071
H         26.60473       51.19664       35.43261
H         25.69811       51.34332       33.88138
N         25.71812       54.90782       36.60305
C         25.87900       55.50506       37.92968
C         24.58661       55.35993       38.74375
O         24.04954       56.33057       39.25599
C         26.48464       56.94085       37.82269
C         25.64740       57.89206       36.92742
C         27.93824       56.82517       37.31186
C         26.20745       59.31636       36.85160
H         25.00761       55.30682       35.97202
H         26.61601       54.92340       38.52677
H         26.53823       57.36377       38.85054
H         24.61616       57.95674       37.33110
H         25.59783       57.49928       35.89044
H         28.46212       57.80065       37.33453
H         28.52404       56.14329       37.96512
H         27.96706       56.42754       36.27772
H         25.53320       59.94689       36.23492
H         26.28595       59.75949       37.86638
H         27.20356       59.33542       36.36322
N         24.10902       54.09695       38.95634
C         23.01417       53.70351       39.86553
C         22.80986       52.16820       39.97924
O         22.06563       51.76538       40.86270
C         21.64814       54.36151       39.54757
C         21.12435       53.93249       38.21515
O         20.10757       53.26452       38.11524
O         21.78569       54.32751       37.12478
H         24.66724       53.38229       38.49438
H         23.31612       54.05516       40.87679
H         21.71514       55.46908       39.57040
H         20.92260       54.06854       40.33878
N         23.42621       51.25338       39.16688
C         23.34822       49.81499       39.33164
C         22.01612       49.20263       38.97881
O         21.48934       48.45867       39.79382
H         24.04731       51.53314       38.40946
H         23.66577       49.53807       40.36058
H         24.07706       49.35102       38.63049
N         21.45625       49.39561       37.74635
C         20.30523       48.62409       37.26773
C         20.59574       47.85901       35.96826
O         19.76058       47.05063       35.58740
C         19.04177       49.50132       37.14694
C         19.10494       50.63178       36.15494
O         18.02276       51.41484       35.99171
O         20.10873       50.85628       35.50076
H         21.88966       50.09010       37.12277
H         20.05754       47.84297       38.01989
H         18.81956       49.93402       38.14581
H         18.18805       48.84695       36.86440
N         21.73724       48.04675       35.23766
C         22.08332       47.28183       34.04748
C         22.13887       48.11453       32.77838
O         22.54311       47.56383       31.76372
H         22.42339       48.74557       35.53028
H         21.36715       46.45190       33.86705
H         23.08176       46.82595       34.22295
N         21.69095       49.40475       32.72395
C         21.63164       50.18137       31.48233
C         22.22290       51.57346       31.64968
O         22.55887       51.95289       32.76357
C         20.17102       50.23898       30.98076
C         19.18159       50.84674       31.99599
C         17.75232       50.83230       31.50877
N         16.76462       51.28414       32.31521
O         17.47331       50.40349       30.39806
H         21.29811       49.82609       33.57414
H         22.22521       49.67387       30.69050
H         19.84891       49.19571       30.76647
H         20.12657       50.81056       30.02841
H         19.47463       51.89319       32.22486
H         19.20261       50.25304       32.93241
H         16.97702       51.63802       33.25918
H         15.78326       51.27035       32.00042
N         22.41364       52.37845       30.55719
C         22.98854       53.72003       30.63809
C         22.07294       54.71809       29.92567
O         21.93533       54.65039       28.71189
C         24.42128       53.72525       30.02964
C         25.08304       55.10748       30.14997
C         25.31999       52.68685       30.72439
H         22.18605       52.00639       29.62210
H         23.08800       54.01813       31.70476
H         24.36017       53.45627       28.95165
H         26.09739       55.08878       29.69680
H         24.49201       55.87566       29.61366
H         25.18026       55.40232       31.21643
H         25.41052       52.91020       31.80830
H         24.90934       51.66262       30.60425
H         26.33549       52.69136       30.27402
N         21.39992       55.66421       30.63898
C         20.51562       56.68071       30.05481
C         21.33154       57.76558       29.34311
O         22.54881       57.70463       29.38019
C         19.67186       57.28474       31.21350
C         18.58388       58.24839       30.81265
N         17.59378       57.87227       29.97121
O         18.58249       59.37883       31.27451
H         21.48929       55.62414       31.66171
H         19.82339       56.18213       29.34265
H         20.35760       57.78671       31.93201
H         19.16842       56.44827       31.74566
H         17.56526       56.92106       29.57856
H         16.85215       58.53927       29.71041
N         20.73208       58.80862       28.69370
C         21.47405       59.95681       28.16599
C         22.12403       60.72021       29.31458
O         23.31392       60.99843       29.26125
C         20.52899       60.92399       27.41455
C         21.29998       62.08247       26.81578
C         22.23578       61.85688       25.79073
C         21.10283       63.39296       27.28459
C         22.96240       62.92037       25.24759
C         21.83624       64.45489       26.74375
C         22.76922       64.22100       25.72275
O         23.48501       65.23397       25.19346
H         19.70799       58.81044       28.59767
H         22.24165       59.59979       27.44415
H         19.75737       61.29751       28.12364
H         19.99803       60.39049       26.59703
H         22.40257       60.85735       25.40976
H         20.39285       63.59280       28.07744
H         23.67941       62.73195       24.45815
H         21.68128       65.45802       27.12084
H         23.38770       66.14785       25.49689
N         21.37277       61.06346       30.40395
C         21.85696       61.79171       31.58231
C         22.97607       61.06547       32.33787
O         23.47818       61.62065       33.30542
C         20.68672       62.03454       32.57124
C         19.55483       62.89601       31.98279
C         18.43974       63.05229       32.97823
O         18.67102       63.63373       34.17083
O         17.31709       62.65379       32.71020
H         20.38644       60.78003       30.38286
H         22.25351       62.77615       31.24992
H         21.07112       62.55714       33.47522
H         20.27714       61.04901       32.88936
H         19.14026       62.43328       31.06366
H         19.94820       63.89978       31.71607
N         23.43405       59.84528       31.94858
C         24.51358       59.11079       32.58580
C         25.71728       59.15315       31.66826
O         26.76042       59.63334       32.09058
C         24.01966       57.67797       32.85903
C         22.94338       57.70179       33.94869
C         22.21674       56.40270       34.06566
O         22.86928       55.23295       34.15922
O         20.99603       56.40237       34.10132
H         23.01272       59.38444       31.14095
H         24.82151       59.57827       33.54921
H         24.85213       57.02409       33.20113
H         23.60804       57.25134       31.91825
H         22.18382       58.49013       33.75245
H         23.43431       57.93820       34.91495
N         25.63761       58.72792       30.37903
C         26.73984       58.85821       29.45396
H         27.61422       58.27953       29.81550
H         26.43884       58.47867       28.45424
H         27.01547       59.93050       29.35111
H         24.76042       58.33271       30.02581
Ca        21.51381       53.68290       35.01017
O         18.59372       54.16355       34.64151
H         17.75552       54.62101       34.38209
H         18.60253       53.33475       34.10057

Ca 1.0



