%chk=holoCaM-CaMKII.loop1.water2.frame69.chk
%nprocshared=20
%mem=10GB
%nosave
#b3lyp/svp scf=(tight,noincore,xqc) Test 
#IOP(5/87=12) Density=Current Pop=(MK,readradii) iop(6/33=2) iop(6/42=6)

holoCaM-CaMKII.loop1.water2.frame69 

   0  1 
C         63.81499       55.36894       70.48952
C         62.33293       55.17982       70.36212
O         61.65522       55.10645       71.37243
H         64.34359       54.53344       69.98478
H         64.10510       56.32713       70.00773
H         64.12146       55.39956       71.55648
N         61.76852       55.13928       69.12484
C         60.33761       55.01695       68.84519
C         59.82395       53.59244       69.09690
O         59.55622       52.87390       68.14171
C         60.11150       55.44552       67.37455
C         58.66863       55.52270       66.97485
O         58.38753       55.85933       65.83946
O         57.68378       55.24382       67.84699
H         62.40798       55.27567       68.32504
H         59.77107       55.74854       69.46065
H         60.64056       54.74436       66.69220
H         60.53971       56.46171       67.23059
N         59.64256       53.11433       70.36076
C         59.20345       51.74761       70.63028
C         57.71637       51.52926       70.34490
O         57.25417       50.41736       70.56364
C         59.49047       51.34773       72.10326
C         60.93427       51.60931       72.59141
C         62.05597       51.09772       71.67261
C         62.05174       49.57814       71.46628
N         63.15188       49.18312       70.58551
H         59.84440       53.72556       71.15676
H         59.80015       51.05657       69.99589
H         59.27085       50.26266       72.21388
H         58.80601       51.89637       72.78769
H         61.04763       51.16985       73.60665
H         61.08307       52.70285       72.70095
H         63.02701       51.38964       72.12888
H         61.98634       51.60813       70.68857
H         61.09233       49.25483       71.00891
H         62.16255       49.06932       72.44911
H         63.13792       48.14598       70.45724
H         63.04339       49.64023       69.65037
H         64.06884       49.46123       71.00535
N         56.89770       52.52605       69.88680
C         55.45051       52.37365       69.74908
C         54.99433       52.40810       68.29127
O         53.80350       52.25350       68.05618
C         54.74172       53.49763       70.53536
C         55.16556       53.60362       71.97657
O         54.25405       53.47347       72.95802
O         56.32347       53.86506       72.26452
H         57.28837       53.45076       69.66623
H         55.12370       51.39586       70.16526
H         53.64179       53.34394       70.48788
H         54.97242       54.46093       70.05434
N         55.86794       52.58746       67.25841
C         55.46894       52.59167       65.85888
C         54.52197       53.72349       65.52679
O         53.44892       53.46998       64.99872
H         56.87167       52.70536       67.45124
H         55.01374       51.61184       65.59523
H         56.37907       52.72244       65.23385
N         54.87314       55.00747       65.80631
C         54.06551       56.18058       65.48309
C         54.84742       57.18335       64.63177
O         54.31094       58.24866       64.35864
C         53.53983       56.81767       66.78940
C         54.63626       57.16425       67.75132
O         54.71087       56.52959       68.92847
O         55.48673       57.98023       67.46055
H         55.76467       55.16381       66.29347
H         53.16385       55.89484       64.89719
H         52.87163       56.07647       67.28029
H         52.93116       57.72068       66.56545
N         56.09222       56.90790       64.13471
C         56.81947       57.83468       63.28138
C         57.32247       59.08293       63.98435
O         57.73776       59.99051       63.27734
H         56.51411       55.98327       64.28580
H         56.15245       58.12180       62.43979
H         57.70702       57.32981       62.84131
N         57.37704       59.19894       65.34650
C         57.91972       60.38590       66.01760
C         58.62397       60.05945       67.33656
O         58.53983       58.94530       67.83578
C         56.82930       61.46918       66.24939
C         56.22510       62.03558       64.95728
O         55.81728       60.98739       67.09728
H         57.14536       58.37101       65.90306
H         58.72812       60.80187       65.37530
H         57.30253       62.33628       66.75767
H         55.25165       60.36449       66.57056
H         55.50227       62.84068       65.20872
H         57.02446       62.46848       64.31967
H         55.68082       61.25390       64.38844
N         59.42418       61.01268       67.90098
C         60.26709       60.82437       69.08046
C         59.99633       61.95350       70.07536
O         60.03434       63.11364       69.68825
C         61.75624       60.77575       68.62035
C         61.96475       59.52279       67.71785
C         62.71313       60.73794       69.82954
C         63.34524       59.42197       67.07173
H         59.51855       61.91358       67.40599
H         60.06057       59.85059       69.57478
H         61.97812       61.69513       68.03343
H         61.24003       59.54122       66.87807
H         61.77605       58.59986       68.31135
H         63.77158       60.74188       69.50137
H         62.58421       61.64109       70.46129
H         62.52807       59.83627       70.45148
H         63.37716       58.51478       66.43027
H         63.53268       60.31105       66.43383
H         64.14912       59.32443       67.82696
N         59.74712       61.67283       71.38867
C         59.42840       62.67328       72.41003
C         60.51904       62.72739       73.46995
O         61.48535       61.99302       73.36665
C         58.06785       62.32662       73.07763
C         56.91710       62.26504       72.06654
O         58.15133       61.13171       73.81901
H         59.79930       60.69314       71.68987
H         59.35193       63.68453       71.95374
H         57.80187       63.13031       73.79546
H         58.11743       60.36779       73.18972
H         56.81049       63.23950       71.54648
H         57.10258       61.47258       71.31215
H         55.96817       62.03536       72.59676
N         60.42201       63.58063       74.52981
C         61.39163       63.62406       75.62637
C         61.44532       62.30112       76.37723
O         62.53925       61.79708       76.58911
C         61.09307       64.77197       76.62707
C         61.28747       66.15900       75.99172
O         59.82072       64.64110       77.21688
H         59.61593       64.21988       74.55800
H         62.40616       63.83102       75.21498
H         61.84432       64.71453       77.44640
H         59.14601       65.04120       76.60959
H         61.12112       66.94832       76.75486
H         62.32742       66.25804       75.61162
H         60.58520       66.32195       75.14857
N         60.30563       61.67840       76.80192
C         60.30409       60.42711       77.56362
C         61.11869       59.36247       76.84849
O         62.00649       58.77790       77.45325
C         58.85267       59.92811       77.77954
C         58.78238       58.75600       78.77797
C         57.35084       58.20490       78.89568
C         57.21735       57.07858       79.93862
N         57.36584       57.57023       81.31101
H         59.39961       62.10773       76.55850
H         60.75346       60.62501       78.56256
H         58.41409       59.63227       76.80048
H         58.23582       60.75468       78.19614
H         59.14101       59.12905       79.75948
H         59.44419       57.92568       78.44975
H         57.06916       57.78985       77.90282
H         56.63352       59.01568       79.14748
H         57.96019       56.27529       79.73570
H         56.20227       56.63381       79.83931
H         56.64384       58.30173       81.50716
H         57.21983       56.77560       81.97491
H         58.31982       57.96083       81.47361
N         60.88496       59.10006       75.53442
C         61.62936       58.11769       74.74870
C         63.11659       58.43173       74.78717
O         63.88946       57.57879       75.20167
C         61.07107       58.06792       73.30184
C         59.61861       57.54300       73.33011
C         58.91436       57.52510       72.00831
O         58.72026       58.55757       71.39190
O         58.34092       56.38888       71.58171
H         60.15587       59.66037       75.06886
H         61.48823       57.10605       75.19192
H         61.68628       57.38455       72.67980
H         61.11753       59.08244       72.84981
H         58.99270       58.17350       73.99063
H         59.61703       56.51412       73.74983
N         63.58451       59.65541       74.42963
C         64.97947       60.02152       74.53857
H         65.59826       59.37429       73.88392
H         65.11611       61.08146       74.23288
H         65.31506       59.91901       75.59342
H         62.92471       60.36508       74.10661
Ca        56.62539       56.55754       70.12798
O         55.81511       57.97160       72.72333
H         56.23823       58.55714       73.40012
H         54.89674       58.32688       72.62349
O         55.34433       59.79242       70.20936
H         54.82641       60.48480       70.69120
H         54.92561       59.75655       69.31462

Ca 1.0



