%chk=holoCaM-CaMKII.loop4.water2.frame193.chk
%nprocshared=20
%mem=10GB
%nosave
#b3lyp/svp scf=(tight,noincore,xqc) Test 
#IOP(5/87=12) Density=Current Pop=(MK,readradii) iop(6/33=2) iop(6/42=6)

holoCaM-CaMKII.loop4.water2.frame193 

   -3  1 
C         25.50675       57.91248       49.22706
C         26.91178       57.47721       49.51223
O         27.51841       56.81973       48.68272
H         24.83114       57.49725       50.00564
H         25.44758       59.02042       49.24821
H         25.17170       57.54702       48.23376
N         27.48688       57.80944       50.69738
C         28.82550       57.39375       51.10504
C         28.91569       55.87570       51.14140
O         28.09017       55.23558       51.77732
C         29.13741       58.02767       52.47131
C         30.44030       57.61868       53.09492
O         31.63084       57.79388       52.48643
O         30.42219       57.15698       54.22279
H         26.92590       58.38013       51.35018
H         29.56407       57.79228       50.37947
H         28.32269       57.77257       53.18492
H         29.14568       59.13207       52.34617
N         29.91866       55.24429       50.46745
C         30.05805       53.79781       50.35047
C         31.24962       53.35108       51.18855
O         31.07495       52.50573       52.05499
C         30.19911       53.38058       48.84226
C         29.05061       53.98951       47.99097
C         30.24913       51.84881       48.69843
C         29.10688       53.66361       46.49464
H         30.63005       55.82646       50.01239
H         29.14903       53.29365       50.74962
H         31.15515       53.77348       48.44369
H         29.12199       55.09173       48.06375
H         28.06439       53.66610       48.38801
H         31.09018       51.42732       49.28584
H         29.29748       51.39182       49.04167
H         30.42937       51.55549       47.64319
H         28.29599       54.21307       45.96885
H         30.07866       53.97479       46.06034
H         28.94758       52.58261       46.30827
N         32.49294       53.87722       50.98439
C         33.68782       53.42016       51.69718
C         33.86924       54.01727       53.10363
O         34.83860       53.65750       53.75726
C         34.93145       53.55540       50.79068
C         35.31365       54.95695       50.40500
O         34.62907       56.02285       50.86071
O         36.26214       55.12839       49.65616
H         32.60589       54.56464       50.22694
H         33.59796       52.31967       51.83968
H         34.72741       52.98654       49.85494
H         35.80132       53.07660       51.28981
N         32.94346       54.84203       53.67614
C         32.95917       55.20141       55.09342
C         33.94242       56.28258       55.50294
O         34.73182       56.05468       56.40785
H         32.10186       55.09548       53.14061
H         33.09976       54.28322       55.70532
H         31.95925       55.59518       55.36114
N         33.88192       57.51751       54.93257
C         34.63949       58.68925       55.37594
C         33.72449       59.89070       55.67639
O         34.24270       60.94876       56.00929
C         35.68566       59.05180       54.30564
C         35.07954       59.31538       52.95501
O         35.39489       58.62622       51.99892
O         34.18936       60.30955       52.79093
H         33.25038       57.63918       54.13789
H         35.20165       58.46371       56.30918
H         36.40346       58.20635       54.22345
H         36.25937       59.94724       54.63034
N         32.36501       59.81074       55.58477
C         31.45630       60.92425       55.80762
C         31.55963       61.99414       54.73659
O         31.63278       63.15854       55.07860
H         31.92178       58.91129       55.36242
H         31.59292       61.34975       56.82674
H         30.41706       60.53249       55.74872
N         31.46859       61.64194       53.41973
C         31.38932       62.56404       52.26745
C         31.04126       61.78543       50.98730
O         31.03585       60.56842       50.98751
C         32.69161       63.38272       51.98789
C         32.93678       64.60339       52.89083
C         34.05271       65.46610       52.35471
N         35.32138       65.00075       52.29352
O         33.80797       66.60365       51.97980
H         31.36859       60.63302       53.25141
H         30.53422       63.25435       52.43106
H         32.59234       63.82901       50.97545
H         33.57692       62.71495       51.95533
H         33.21586       64.31836       53.91740
H         32.00337       65.21017       52.90895
H         35.55030       64.05085       52.61911
H         36.07927       65.59824       51.93085
N         30.70733       62.46516       49.84550
C         30.35084       61.80411       48.59205
C         31.31193       62.24855       47.49761
O         31.40133       63.43096       47.20622
C         28.87806       62.12471       48.21856
C         28.48734       61.49405       46.87064
C         27.92005       61.60471       49.30266
H         30.67668       63.49326       49.86743
H         30.42102       60.69911       48.69758
H         28.75266       63.22697       48.13478
H         27.43081       61.72957       46.62427
H         29.10816       61.90817       46.05405
H         28.61356       60.39018       46.89721
H         26.87019       61.84998       49.03491
H         28.01029       60.50137       49.40699
H         28.13878       62.07450       50.28382
N         32.05746       61.31532       46.84239
C         32.96548       61.60661       45.73651
C         32.17112       61.74425       44.43988
O         30.97322       61.52214       44.45378
C         33.99706       60.44729       45.67099
C         35.06182       60.57145       44.61439
N         35.91485       61.62069       44.60442
O         35.16603       59.70042       43.76382
H         31.94788       60.33656       47.12400
H         33.50954       62.55115       45.95152
H         33.45152       59.49181       45.51531
H         34.51148       60.38605       46.65483
H         35.84924       62.36169       45.31637
H         36.64170       61.69236       43.87704
N         32.76908       62.10535       43.27028
C         32.05891       62.14376       41.99307
C         31.55932       60.75364       41.62466
O         30.37683       60.58443       41.36296
C         33.00439       62.63843       40.87338
C         32.32017       62.58304       39.52723
C         31.22004       63.40959       39.24721
C         32.75836       61.66774       38.55510
C         30.56661       63.31811       38.01453
C         32.09908       61.57238       37.32794
C         30.99903       62.39714       37.05375
O         30.34873       62.30921       35.87629
H         33.76771       62.35091       43.28164
H         31.19976       62.84774       42.06364
H         33.90509       61.98588       40.85985
H         33.35250       63.67298       41.08101
H         30.86592       64.11949       39.98415
H         33.59690       61.01147       38.75419
H         29.71772       63.95791       37.80971
H         32.44006       60.85179       36.59534
H         30.60892       61.67564       35.19232
N         32.44101       59.71872       41.57169
C         32.11232       58.35401       41.17237
C         30.94726       57.82004       41.97839
O         29.99618       57.31262       41.40054
C         33.37255       57.47615       41.36345
C         33.20379       56.02999       40.87775
C         34.47685       55.23415       41.02326
O         35.59373       55.78734       41.53953
O         34.50155       54.06879       40.66275
H         33.41461       59.91979       41.84417
H         31.83870       58.34295       40.09381
H         33.66423       57.47214       42.43838
H         34.20032       57.93660       40.77919
H         32.91696       56.03941       39.80442
H         32.40364       55.52670       41.46132
N         30.95464       57.93657       43.32958
C         29.89127       57.43929       44.19385
C         28.56090       58.08203       43.83518
O         27.60950       57.36274       43.56294
C         30.26163       57.66562       45.67504
C         31.57830       56.93320       46.01447
C         31.90463       57.01314       47.46350
O         32.06179       55.98836       48.09809
O         32.04250       58.19396       48.08350
H         31.75959       58.42116       43.75052
H         29.79329       56.33854       44.05576
H         29.44327       57.25925       46.31072
H         30.36662       58.75225       45.89120
H         32.43638       57.35797       45.46335
H         31.48855       55.86352       45.72857
N         28.43611       59.43327       43.76080
C         27.20909       60.08434       43.35576
H         26.40004       59.86280       44.08195
H         27.36209       61.18449       43.31225
H         26.91002       59.73519       42.34357
H         29.25086       60.01981       43.96043
Ca        32.09596       58.04139       50.30969
O         35.12948       58.10621       48.20650
H         35.54865       58.02228       47.31347
H         35.76132       57.65477       48.81966
O         34.80505       61.06895       49.68404
H         35.51213       61.13173       50.37474
H         33.96360       60.96813       50.19565

Ca 1.0



