%chk=holoCaM-CaMKII.loop3.water1.frame348.chk
%nprocshared=20
%mem=10GB
%nosave
#b3lyp/svp scf=(tight,noincore,xqc) Test 
#IOP(5/87=12) Density=Current Pop=(MK,readradii) iop(6/33=2) iop(6/42=6)

holoCaM-CaMKII.loop3.water1.frame348 

   0  1 
C         20.28532       72.26399       33.83679
C         19.18275       72.33539       32.82601
O         19.24220       73.17782       31.94143
H         21.05162       73.04385       33.63739
H         19.87150       72.42052       34.85459
H         20.76868       71.26640       33.78409
N         18.12269       71.48284       32.91257
C         17.02219       71.48196       31.96021
C         15.78477       71.99518       32.67225
O         15.38527       71.42849       33.68020
C         16.83611       70.06665       31.38084
C         15.98508       70.05784       30.13814
O         14.73613       70.54977       30.14482
O         16.43878       69.60568       29.10068
H         18.08542       70.81876       33.70181
H         17.26534       72.15755       31.11177
H         16.40938       69.39303       32.15436
H         17.83187       69.66288       31.09516
N         15.16765       73.11854       32.22087
C         14.07546       73.79518       32.91393
C         12.86380       72.89488       33.12959
O         12.33914       72.89029       34.23447
C         13.73766       75.09605       32.15051
C         12.73896       76.00659       32.88101
C         12.67708       77.38247       32.19735
C         11.69570       78.32612       32.90456
N         11.72819       79.65916       32.30080
H         15.53606       73.55116       31.35917
H         14.44692       74.11567       33.91451
H         13.36905       74.86871       31.12621
H         14.69269       75.66285       32.05776
H         13.07970       76.16065       33.92874
H         11.73599       75.52813       32.89609
H         12.37508       77.26700       31.13356
H         13.69201       77.83880       32.22949
H         11.96678       78.41291       33.98036
H         10.66686       77.90916       32.83284
H         12.68072       80.07820       32.41168
H         11.48464       79.60570       31.28522
H         11.03477       80.27366       32.78538
N         12.39233       72.07803       32.14420
C         11.20871       71.22072       32.29593
C         11.54203       69.72619       32.30830
O         10.61878       68.93399       32.44014
C         10.20523       71.54329       31.16174
C         10.82597       71.27795       29.81953
O         11.10242       72.30472       29.00438
O         11.22505       70.16299       29.53624
H         12.90250       72.06055       31.24935
H         10.70449       71.42873       33.26455
H          9.93369       72.61939       31.23150
H          9.27581       70.94475       31.26787
N         12.81709       69.25924       32.18174
C         13.15701       67.84537       32.19216
C         12.53645       67.07446       31.04463
O         11.78461       66.14888       31.31836
H         13.59431       69.92378       32.11464
H         12.82979       67.40695       33.16143
H         14.26016       67.73018       32.12618
N         12.82385       67.37326       29.73924
C         12.27705       66.60406       28.61395
C         13.34046       65.96323       27.72988
O         12.95990       65.15827       26.89001
C         11.37808       67.47485       27.71248
C         12.18116       68.47990       26.91098
N         12.24832       68.38399       25.56349
O         12.80227       69.36428       27.47811
H         13.44833       68.16994       29.55353
H         11.64676       65.77873       29.01156
H         10.59253       67.97914       28.31173
H         10.85368       66.79577       27.00372
H         11.75529       67.63618       25.05414
H         12.81748       69.05342       25.02902
N         14.65985       66.31127       27.78985
C         15.65438       65.74992       26.88919
C         16.35408       66.78006       26.02080
O         17.23052       66.35576       25.27921
H         14.98632       66.99863       28.48193
H         15.21126       64.99227       26.20865
H         16.42215       65.23352       27.50418
N         16.09221       68.12683       26.06279
C         16.92658       69.07671       25.31880
C         16.91037       70.48449       25.89442
O         16.01993       70.84505       26.65195
C         16.68039       69.03833       23.78580
C         15.33149       69.55968       23.32850
C         14.99999       70.92238       23.45526
C         14.40476       68.69194       22.72179
C         13.76893       71.40095       22.99861
C         13.17125       69.17372       22.26758
C         12.84831       70.52731       22.40553
O         11.65650       70.97683       21.96251
H         15.38557       68.48149       26.72194
H         17.97458       68.74536       25.50091
H         16.80777       67.99049       23.44380
H         17.46367       69.63163       23.26647
H         15.69450       71.62691       23.88984
H         14.63312       67.64084       22.59941
H         13.53437       72.45322       23.10205
H         12.46555       68.49384       21.80693
H         11.39569       71.90601       22.03943
N         17.96767       71.30163       25.62711
C         18.19121       72.60790       26.23287
C         18.41533       73.63818       25.13942
O         19.25625       73.42680       24.27564
C         19.42053       72.50809       27.19355
C         19.05796       71.57386       28.38082
C         19.85544       73.89369       27.71178
C         20.19524       71.33300       29.37348
H         18.71850       70.93684       25.01913
H         17.32215       72.92733       26.85158
H         20.28106       72.08030       26.63236
H         18.75881       70.57946       27.99010
H         18.19242       72.00272       28.93139
H         20.76366       73.82403       28.34154
H         20.13459       74.55698       26.87005
H         19.04598       74.36202       28.30312
H         19.84657       70.64122       30.16812
H         21.06563       70.87755       28.85933
H         20.50910       72.26995       29.87218
N         17.75461       74.82935       25.18593
C         17.99702       75.92994       24.25866
C         18.85827       76.98673       24.93083
O         19.21462       76.81692       26.08364
C         16.64977       76.51330       23.79820
O         15.94493       77.02205       24.89997
H         17.12273       75.00446       25.98053
H         18.55805       75.57326       23.36746
H         16.05917       75.70483       23.31214
H         16.81914       77.32904       23.06249
H         15.05096       77.28941       24.56345
N         19.25422       78.10444       24.26233
C         20.07775       79.14573       24.87566
C         19.38289       79.74904       26.08157
O         19.98800       79.82711       27.14150
C         20.38567       80.24898       23.86009
H         18.95912       78.21860       23.28059
H         21.05430       78.71217       25.19087
H         20.93027       79.81982       22.99235
H         19.45210       80.72950       23.49872
H         21.03247       81.02295       24.32757
N         18.08663       80.15847       25.98960
C         17.32856       80.73773       27.09547
C         17.38699       79.86343       28.33362
O         17.72250       80.36281       29.39844
C         15.86676       80.93425       26.67047
H         17.60525       80.01896       25.08713
H         17.74871       81.73661       27.34687
H         15.81458       81.60493       25.78638
H         15.40011       79.96111       26.40160
H         15.28211       81.39458       27.49493
N         17.10245       78.53676       28.25316
C         17.14212       77.62714       29.39700
C         18.51232       77.64335       30.05379
O         18.59557       77.98879       31.22431
C         16.75977       76.20331       28.93961
C         15.29103       76.16171       28.50126
C         14.89271       74.84831       27.90784
O         15.00694       73.71595       28.61612
O         14.35660       74.81520       26.81128
H         16.86694       78.16163       27.32195
H         16.39771       77.95944       30.15670
H         16.89933       75.47630       29.77093
H         17.41576       75.91058       28.09708
H         15.06930       76.94992       27.75307
H         14.65483       76.35411       29.39200
N         19.63025       77.30567       29.35641
C         20.96865       77.34516       29.90787
H         21.58556       78.05097       29.31201
H         20.98260       77.67879       30.96635
H         21.42166       76.33400       29.84744
H         19.53833       77.01709       28.37948
Ca        13.24348       72.37267       28.34373
O         11.91435       71.59138       25.69416
H         12.00269       72.48363       25.27580
H         11.31701       71.08798       25.08599

Ca 1.0



