%chk=holoCaM.loop1.water2.frame384.chk
%nprocshared=20
%mem=10GB
%nosave
#b3lyp/svp scf=(tight,noincore,xqc) Test 
#IOP(5/87=12) Density=Current Pop=(MK,readradii) iop(6/33=2) iop(6/42=6)

holoCaM.loop1.water2.frame384 

   0  1 
C        109.45274       71.79885       12.44718
C        110.12104       72.72498       13.41510
O        111.30636       72.98622       13.27787
H        108.60950       72.31769       11.94721
H        110.17277       71.44551       11.67940
H        109.06274       70.91813       13.00106
N        109.40632       73.25853       14.44035
C        110.00285       74.10069       15.46801
C        111.00283       73.26988       16.26566
O        110.60908       72.23933       16.79519
C        108.89064       74.63114       16.39560
C        109.36335       75.62673       17.41099
O        108.49196       76.07058       18.32908
O        110.50797       76.04960       17.40954
H        108.39841       73.03971       14.49398
H        110.48860       74.97704       14.98046
H        108.41966       73.77510       16.92556
H        108.10677       75.13694       15.78996
N        112.30745       73.65130       16.38842
C        113.31513       72.84862       17.08500
C        113.84174       73.49990       18.36089
O        114.54566       72.81095       19.08731
C        114.50009       72.54458       16.14131
C        114.12821       71.60384       14.98767
C        115.35775       71.31084       14.11445
C        115.06975       70.21051       13.08456
N        116.26971       69.89818       12.30725
H        112.59262       74.53915       15.95997
H        112.86982       71.88646       17.42034
H        115.30101       72.03676       16.72218
H        114.91506       73.49808       15.74558
H        113.32641       72.04000       14.36125
H        113.75951       70.65242       15.42932
H        116.18791       70.95905       14.76455
H        115.68066       72.24300       13.59843
H        114.25270       70.52907       12.40022
H        114.74200       69.29139       13.62039
H        116.57214       70.73503       11.75809
H        117.04342       69.59725       12.94453
H        116.05828       69.11458       11.64809
N        113.57250       74.79137       18.70975
C        114.05446       75.40327       19.95466
C        112.91481       75.98146       20.79960
O        113.19190       76.54132       21.85089
C        115.15788       76.42538       19.62517
C        114.71450       77.56412       18.75715
O        113.40796       77.80627       18.52847
O        115.55840       78.27953       18.24304
H        113.03885       75.37932       18.05660
H        114.55454       74.64061       20.59215
H        115.94245       75.86309       19.06815
H        115.63327       76.82324       20.54811
N        111.60731       75.81452       20.44217
C        110.47350       76.19317       21.26998
C        110.21585       77.68132       21.38440
O        110.16381       78.17675       22.50095
H        111.38217       75.28453       19.59240
H        110.59344       75.73542       22.27661
H        109.55664       75.75680       20.82109
N        109.97824       78.44698       20.27828
C        109.55411       79.84924       20.34250
C        108.33328       80.14610       19.45082
O        107.99219       81.31146       19.30071
C        110.73958       80.78508       20.04146
C        111.36133       80.59129       18.69818
O        110.69575       80.71632       17.68981
O        112.67752       80.33984       18.59895
H        110.10116       78.01823       19.34864
H        109.25463       80.12172       21.37894
H        111.52026       80.62843       20.81711
H        110.39581       81.83906       20.12365
N        107.58850       79.15290       18.88191
C        106.38902       79.38906       18.08648
C        106.63742       79.77873       16.63777
O        105.64972       79.95114       15.93505
H        107.80033       78.17981       19.11751
H        105.74298       80.14017       18.59372
H        105.80940       78.44154       18.04326
N        107.88573       79.93764       16.10406
C        108.11467       80.29855       14.70119
C        109.19514       79.44046       14.04023
O        109.85185       78.64383       14.69903
C        108.45752       81.80692       14.57477
C        107.25060       82.70486       14.88881
O        109.56204       82.14900       15.37217
H        108.70201       79.83095       16.71607
H        107.18933       80.11953       14.10905
H        108.71945       82.03855       13.52120
H        109.24335       82.24056       16.30816
H        107.53142       83.76989       14.74631
H        106.41500       82.46997       14.19455
H        106.90096       82.56501       15.93250
N        109.39000       79.55557       12.69343
C        110.36174       78.81755       11.88904
C        111.25504       79.82049       11.15370
O        110.74996       80.70251       10.47222
C        109.58657       77.84467       10.94091
C        109.05925       76.65601       11.80045
C        110.45220       77.33108        9.77469
C        108.23246       75.61732       11.04359
H        108.77102       80.19929       12.17533
H        111.02319       78.18906       12.52540
H        108.73836       78.39568       10.47702
H        108.42464       77.04948       12.62233
H        109.92334       76.12429       12.26167
H        111.30297       76.73579       10.14282
H        109.85280       76.70352        9.08472
H        110.82959       78.17479        9.16020
H        107.89919       74.83315       11.75710
H        107.33933       76.09105       10.58823
H        108.83288       75.11019       10.26114
N        112.61205       79.71016       11.24762
C        113.59302       80.62054       10.64949
C        114.39848       79.88912        9.57822
O        114.01066       78.79902        9.19888
C        114.51425       81.17016       11.77817
C        113.73100       82.01775       12.78686
O        115.22308       80.12931       12.41187
H        112.98920       78.91422       11.78166
H        113.10283       81.48740       10.15454
H        115.26625       81.86715       11.36001
H        114.63848       79.71866       13.10016
H        114.41501       82.39348       13.57794
H        113.26939       82.88824       12.27462
H        112.92668       81.41790       13.25054
N        115.54039       80.41932        9.05042
C        116.40369       79.72099        8.09198
C        116.85812       78.37021        8.62644
O        116.80786       77.39023        7.89615
C        117.67748       80.55291        7.77075
C        117.36372       81.85775        7.03764
O        118.38492       80.83820        8.95311
H        115.84292       81.34504        9.37863
H        115.85649       79.55295        7.13711
H        118.31116       79.93512        7.08818
H        119.34620       80.90469        8.71427
H        116.73874       82.53256        7.65633
H        118.31411       82.38274        6.80149
H        116.83678       81.64094        6.08510
N        117.34081       78.26308        9.89535
C        117.93000       77.04217       10.44990
C        116.92715       75.89504       10.57975
O        117.32667       74.81981       11.00655
C        118.51623       77.31295       11.86543
C        119.48575       78.51043       11.93982
C        120.02980       78.69121       13.36393
C        120.82471       79.99840       13.54687
N        119.97281       81.18896       13.43422
H        117.30367       79.11199       10.46992
H        118.76246       76.73050        9.78184
H        119.04738       76.39882       12.21301
H        117.67717       77.51424       12.56907
H        118.94210       79.42815       11.67417
H        120.32831       78.38209       11.22697
H        120.68834       77.82572       13.59466
H        119.19452       78.69486       14.09821
H        121.65892       80.05446       12.81351
H        121.26467       79.98378       14.56809
H        119.16021       81.11692       14.08982
H        120.53085       82.03429       13.69179
H        119.62831       81.32283       12.45797
N        115.60170       76.07083       10.31248
C        114.56593       75.10616       10.63948
C        113.83743       74.67967        9.37560
O        113.79856       73.48909        9.09878
C        113.66800       75.72946       11.74191
C        114.58152       76.19822       12.89692
C        113.91433       76.62399       14.16104
O        113.03420       77.63953       14.22839
O        114.24631       76.07338       15.19726
H        115.27118       76.97481        9.97605
H        115.00837       74.18899       11.08973
H        112.93899       74.96690       12.09069
H        113.11477       76.61020       11.36419
H        115.19601       77.05705       12.55551
H        115.26457       75.35976       13.15950
N        113.30055       75.59813        8.52344
C        112.69587       75.26386        7.24887
H        111.65922       75.65671        7.21287
H        113.28344       75.74047        6.43369
H        112.67263       74.17044        7.06122
H        113.35550       76.59266        8.75766
Ca       112.65642       78.01449       16.41585
O        112.52065       81.05949       15.66606
H        111.72136       80.67789       15.22409
H        112.33289       82.02895       15.73755
O        115.31148       80.22400       15.69654
H        115.02006       80.68794       16.52139
H        115.21653       79.26110       15.90404

Ca 1.0



