%chk=holoCaM-CaMKII.loop2.water2.frame196.chk
%nprocshared=20
%mem=10GB
%nosave
#b3lyp/svp scf=(tight,noincore,xqc) Test 
#IOP(5/87=12) Density=Current Pop=(MK,readradii) iop(6/33=2) iop(6/42=6)

holoCaM-CaMKII.loop2.water2.frame196 

   -2  1 
C         -1.09817       73.36497       19.21701
C         -2.29175       73.89734       19.95515
O         -3.23465       73.15662       20.19524
H         -0.20459       73.44867       19.87529
H         -1.23356       72.29424       18.95567
H         -0.92031       73.95348       18.29466
N         -2.27617       75.17771       20.41289
C         -3.28054       75.69907       21.32753
C         -4.62133       76.00486       20.65824
O         -4.62740       76.75886       19.69464
C         -2.76692       77.00756       21.98351
C         -3.53679       77.30690       23.23661
O         -3.36608       78.35146       23.84192
O         -4.35195       76.35505       23.72330
H         -1.43666       75.74643       20.21933
H         -3.38711       74.93637       22.13064
H         -2.83622       77.84600       21.25629
H         -1.70546       76.90810       22.29152
N         -5.80126       75.53237       21.17012
C         -7.11459       75.90562       20.63742
C         -8.02951       76.60173       21.65645
O         -9.09446       77.03696       21.23905
C         -7.81969       74.65178       20.10980
H         -5.76737       74.89686       21.97613
H         -6.99213       76.61030       19.78669
H         -8.80121       74.91377       19.65780
H         -7.19854       74.16351       19.33013
H         -7.99228       73.92854       20.93662
N         -7.73983       76.69826       22.99205
C         -8.68173       77.24698       23.97768
C         -8.08189       78.31384       24.90970
O         -8.82435       78.82280       25.73858
C         -9.35742       76.07791       24.73827
C         -8.39773       75.13097       25.39555
O         -8.32639       73.97122       25.02140
O         -7.57305       75.56405       26.35534
H         -6.87884       76.26815       23.34390
H         -9.51907       77.76525       23.46108
H         -9.94618       75.49727       23.99373
H        -10.07037       76.46778       25.49577
N         -6.79132       78.75456       24.81031
C         -6.24824       79.86047       25.60177
C         -6.07946       79.62234       27.10060
O         -5.63299       80.54487       27.76822
H         -6.18166       78.36289       24.08073
H         -6.89389       80.75356       25.45131
H         -5.23954       80.11124       25.20765
N         -6.40509       78.44809       27.71173
C         -6.29264       78.22436       29.15750
C         -4.85149       78.15766       29.69629
O         -4.70082       77.98702       30.89851
C         -7.08396       76.95549       29.56036
C         -6.54071       75.65514       29.02918
N         -7.18052       74.50133       29.30801
O         -5.53725       75.62853       28.33753
H         -6.82143       77.70991       27.14132
H         -6.81258       79.06595       29.66713
H         -8.12968       77.06628       29.19663
H         -7.11758       76.88217       30.66817
H         -8.03856       74.49207       29.87664
H         -6.81547       73.61609       28.94363
N         -3.75274       78.29507       28.89594
C         -2.38402       78.34054       29.40232
C         -1.67747       76.99302       29.49479
O         -0.51140       76.99518       29.86160
H         -3.88524       78.51155       27.90367
H         -2.35673       78.86155       30.38538
H         -1.78556       78.96441       28.70456
N         -2.29550       75.81172       29.20287
C         -1.65412       74.49734       29.31815
C         -1.79467       73.66602       28.04339
O         -2.45324       74.08168       27.10241
C         -2.29798       73.72848       30.50708
C         -1.87104       74.33376       31.84326
O         -3.70150       73.74517       30.42186
H         -3.28299       75.83249       28.93752
H         -0.56270       74.59818       29.50832
H         -1.94681       72.67478       30.54939
H         -3.95558       73.21368       29.62357
H         -2.18380       75.39459       31.92443
H         -2.32591       73.75746       32.67664
H         -0.76515       74.27074       31.94500
N         -1.23367       72.41938       28.00064
C         -1.46846       71.43833       26.94763
C         -2.55813       70.50778       27.44617
O         -2.44030       69.96819       28.53778
C         -0.16493       70.64453       26.60774
C          0.90392       71.58933       26.00222
C         -0.47133       69.47562       25.64085
C          2.25028       70.90582       25.73230
H         -0.72238       72.08724       28.83159
H         -1.82566       71.92683       26.01455
H          0.23439       70.20386       27.54878
H          1.09482       72.42201       26.71162
H          0.52644       72.02291       25.04988
H         -0.87676       69.85178       24.67798
H          0.42787       68.86069       25.44271
H         -1.20379       68.77456       26.08818
H          2.16397       70.10759       24.96744
H          2.97275       71.65182       25.34046
H          2.65896       70.47298       26.66981
N         -3.63389       70.24450       26.65537
C         -4.72410       69.35513       27.03534
C         -4.55790       68.00854       26.37341
O         -3.60304       67.81262       25.63625
C         -6.06003       69.99094       26.61057
C         -6.28179       71.28044       27.32811
O         -6.38105       72.32651       26.70654
O         -6.37433       71.27922       28.67065
H         -3.65476       70.64735       25.70925
H         -4.71772       69.16987       28.13189
H         -6.91210       69.32335       26.85141
H         -6.05394       70.16098       25.50901
N         -5.44286       67.00274       26.63384
C         -5.32959       65.69652       26.00659
C         -5.54156       65.80562       24.49792
O         -4.68561       65.30088       23.78643
C         -6.24350       64.64415       26.67321
C         -6.00467       63.28234       26.06616
C         -7.02713       62.63333       25.35570
C         -4.74935       62.65697       26.18944
C         -6.79368       61.38596       24.76956
C         -4.52177       61.40989       25.60396
C         -5.54221       60.77565       24.89214
H         -6.20039       67.16507       27.31378
H         -4.29482       65.33217       26.19303
H         -7.30665       64.91578       26.58763
H         -6.02106       64.59134       27.76148
H         -7.99917       63.09749       25.24430
H         -3.94482       63.13276       26.73629
H         -7.58258       60.89454       24.21614
H         -3.55245       60.93777       25.70020
H         -5.36244       59.81164       24.43533
N         -6.59606       66.45886       23.90202
C         -6.73259       66.61006       22.45439
C         -5.61318       67.39822       21.76685
O         -5.65709       67.51085       20.55065
C         -8.05203       67.37681       22.28492
C         -8.82926       66.93861       23.50418
C         -7.75154       67.01279       24.57993
H         -6.80964       65.58585       22.02521
H         -7.86819       68.46908       22.42033
H         -8.55466       67.22443       21.30602
H         -9.73983       67.53634       23.72101
H         -9.12175       65.87170       23.36376
H         -7.53786       68.06787       24.85259
H         -8.10586       66.44969       25.45372
N         -4.60200       67.98943       22.47307
C         -3.52645       68.77824       21.87598
C         -2.16451       68.11391       22.06572
O         -1.19266       68.62368       21.52382
C         -3.48180       70.16875       22.54429
C         -4.81737       70.92438       22.47242
C         -4.79182       72.20685       23.26093
O         -5.80755       72.87531       23.34716
O         -3.67969       72.61394       23.90346
H         -4.59854       67.91318       23.49121
H         -3.69500       68.88939       20.78312
H         -2.67988       70.78990       22.08667
H         -3.22665       70.01041       23.61232
H         -5.62196       70.29473       22.90681
H         -5.06653       71.14467       21.41238
N         -1.99960       66.99501       22.82668
C         -0.71699       66.35729       23.01596
H         -0.00100       67.06904       23.47702
H         -0.83052       65.48229       23.69315
H         -0.32523       66.00114       22.04076
H         -2.79463       66.57481       23.31097
Ca        -5.58199       76.16622       25.55520
O         -1.65076       74.83680       24.33900
H         -0.94153       75.08165       23.69484
H         -1.43062       73.91037       24.60514
O         -2.53600       76.74970       26.32904
H         -3.22868       77.42258       26.12473
H         -1.68495       77.25277       26.30625

Ca 1.0



