%chk=holoCaM.loop2.water1.frame260.chk
%nprocshared=20
%mem=10GB
%nosave
#b3lyp/svp scf=(tight,noincore,xqc) Test 
#IOP(5/87=12) Density=Current Pop=(MK,readradii) iop(6/33=2) iop(6/42=6)

holoCaM.loop2.water1.frame260 

   -2  1 
C         46.96930        6.89191       50.28967
C         45.91039        7.54218       49.44079
O         44.82490        7.81375       49.92875
H         47.87213        7.53944       50.31998
H         46.61325        6.73318       51.32936
H         47.25226        5.90963       49.85427
N         46.18128        7.82678       48.13954
C         45.25532        8.48559       47.21585
C         43.98375        7.66875       47.01772
O         44.05884        6.50114       46.66276
C         45.99220        8.72175       45.88652
C         45.17236        9.29278       44.76351
O         44.53544       10.47237       44.82291
O         45.10762        8.67245       43.71606
H         47.12130        7.57129       47.79511
H         44.99135        9.48558       47.62078
H         46.40280        7.74978       45.53402
H         46.84800        9.40395       46.08058
N         42.77126        8.25809       47.22842
C         41.47844        7.59177       47.12753
C         40.56467        8.22531       46.07401
O         39.43601        7.76931       45.94886
C         40.80066        7.68496       48.50290
H         42.76084        9.24656       47.49822
H         41.60659        6.51878       46.87014
H         40.64193        8.75008       48.78588
H         39.81619        7.17124       48.49955
H         41.44030        7.21063       49.27719
N         40.95232        9.29281       45.31314
C         40.05062       10.00766       44.40923
C         40.71871       10.36780       43.08148
O         40.14880       10.05007       42.04610
C         39.36202       11.19839       45.13123
C         40.21805       12.19665       45.87821
O         41.54450       12.04702       45.99384
O         39.68141       13.13153       46.44858
H         41.89330        9.67848       45.44940
H         39.18902        9.35503       44.13481
H         38.67910       10.76482       45.89650
H         38.72710       11.73266       44.39066
N         41.92676       10.99845       43.02366
C         42.61322       11.33349       41.78195
C         42.97264       12.80400       41.68389
O         43.60200       13.17333       40.70214
H         42.41667       11.21584       43.89535
H         42.00675       11.06271       40.89016
H         43.55652       10.74778       41.73904
N         42.60599       13.71009       42.63839
C         42.90315       15.13791       42.53787
C         44.38840       15.49696       42.69119
O         44.69875       16.67699       42.59780
C         42.02452       15.94208       43.52533
C         42.24745       15.67832       44.99340
N         41.53470       16.37956       45.90309
O         43.05821       14.84709       45.37163
H         42.02648       13.39397       43.42780
H         42.57994       15.47839       41.52880
H         40.95712       15.72387       43.30048
H         42.19125       17.02507       43.34090
H         40.84443       17.08262       45.60103
H         41.67744       16.22995       46.90968
N         45.36672       14.56176       42.88245
C         46.78520       14.90030       42.93172
C         47.24883       15.53753       44.23139
O         48.43025       15.83973       44.32047
H         45.12398       13.56345       42.91140
H         47.03830       15.55031       42.06529
H         47.37620       13.96578       42.82146
N         46.41105       15.73917       45.28895
C         46.83983       16.28563       46.57768
C         46.55328       15.28178       47.69222
O         46.03029       14.21123       47.41465
C         46.11913       17.63408       46.84634
C         46.44382       18.68988       45.77785
O         44.72933       17.45613       46.97819
H         45.42349       15.47898       45.19507
H         47.93442       16.48354       46.58022
H         46.48876       18.05582       47.80419
H         44.34425       17.34452       46.07146
H         46.08869       18.36684       44.77645
H         45.94704       19.64912       46.03633
H         47.54018       18.86224       45.73019
N         46.83384       15.58553       48.99372
C         46.48084       14.71832       50.11330
C         45.31656       15.35936       50.83827
O         45.44802       16.47507       51.32360
C         47.69823       14.48075       51.05988
C         48.81630       13.71818       50.30437
C         47.26448       13.70857       52.32603
C         50.07426       13.46736       51.14249
H         47.24552       16.50407       49.21533
H         46.14466       13.72384       49.75004
H         48.09090       15.46862       51.39020
H         49.12023       14.31258       49.41656
H         48.42901       12.73727       49.95039
H         48.10224       13.59547       53.04099
H         46.48805       14.26947       52.88155
H         46.87067       12.70555       52.06262
H         50.49108       14.42668       51.51455
H         49.86569       12.79715       52.00142
H         50.83942       12.96192       50.51725
N         44.13638       14.68594       50.95367
C         42.99232       15.20733       51.68722
C         43.11491       14.82250       53.14883
O         44.03066       14.09169       53.49972
C         41.67618       14.66941       51.08616
C         41.51164       15.04176       49.63840
O         42.30369       14.63788       48.80133
O         40.46722       15.79994       49.25394
H         44.06952       13.73222       50.57255
H         42.98360       16.31818       51.61900
H         40.81763       15.08721       51.65338
H         41.64449       13.56095       51.17010
N         42.24610       15.31227       54.07755
C         42.39210       15.01092       55.49568
C         42.23217       13.52271       55.78476
O         43.08076       13.00270       56.49368
C         41.46938       15.87403       56.38008
C         41.79076       15.66471       57.84535
C         43.07352       15.96835       58.34528
C         40.82114       15.15311       58.72310
C         43.38007       15.75043       59.68977
C         41.13215       14.94137       60.07070
C         42.41070       15.23647       60.55234
H         41.50111       15.95781       53.77418
H         43.42736       15.30562       55.77367
H         40.40652       15.64596       56.17475
H         41.63097       16.94734       56.14040
H         43.84297       16.36897       57.69786
H         39.82838       14.91199       58.36506
H         44.37115       15.97902       60.06099
H         40.38259       14.54425       60.74199
H         42.65137       15.06768       61.59372
N         41.21606       12.75037       55.28164
C         41.13933       11.30525       55.46241
C         42.42963       10.60395       55.06643
O         42.93031        9.77926       55.81720
C         40.01784       10.87765       54.49705
C         39.11700       12.08615       54.50721
C         40.13048       13.22412       54.44479
H         40.85708       11.08416       56.51606
H         40.40321       10.80669       53.45381
H         39.53610        9.90842       54.74741
H         38.34579       12.11068       53.70754
H         38.61143       12.11769       55.49887
H         40.51382       13.37172       53.41379
H         39.63631       14.14033       54.81459
N         43.00598       10.89734       53.86659
C         44.17555       10.21065       53.32268
C         45.43906       10.47121       54.13273
O         46.40774        9.74512       53.95640
C         44.43548       10.67142       51.87060
C         43.22204       10.47498       50.93818
C         43.44138       11.08880       49.58819
O         44.63428       11.60848       49.23737
O         42.50213       11.16901       48.81566
H         42.55552       11.63295       53.30718
H         43.95676        9.11928       53.32290
H         45.31257       10.13036       51.45093
H         44.67481       11.75653       51.90311
H         42.33061       10.98527       51.34374
H         42.97005        9.39853       50.83535
N         45.53003       11.52665       54.98679
C         46.72274       11.82361       55.74673
H         47.57904       11.99290       55.06092
H         46.56370       12.74642       56.34649
H         46.95116       10.98579       56.43756
H         44.74038       12.16869       55.08172
Ca        43.76393       11.94324       46.31135
O         46.55034       12.57431       45.10369
H         46.75338       11.96187       45.85358
H         46.53663       11.99645       44.30041

Ca 1.0



