%chk=holoCaM.loop1.water2.frame202.chk
%nprocshared=20
%mem=10GB
%nosave
#b3lyp/svp scf=(tight,noincore,xqc) Test 
#IOP(5/87=12) Density=Current Pop=(MK,readradii) iop(6/33=2) iop(6/42=6)

holoCaM.loop1.water2.frame202 

   0  1 
C         36.59133       56.94503      109.76882
C         37.42636       56.22832      110.78834
O         37.23026       56.42977      111.97516
H         35.85492       57.61656      110.25907
H         37.25151       57.55881      109.11901
H         36.04826       56.20815      109.14123
N         38.38808       55.35907      110.38216
C         39.29112       54.66305      111.29534
C         40.19723       55.67702      111.98482
O         40.83623       56.45142      111.28544
C         40.10534       53.63486      110.48689
C         41.02200       52.81821      111.34190
O         40.53354       52.07971      112.35688
O         42.21529       52.79809      111.09584
H         38.48038       55.19279      109.36694
H         38.69328       54.09637      112.04434
H         40.69197       54.15330      109.69574
H         39.39897       52.93477      109.99006
N         40.29273       55.73819      113.34926
C         41.04541       56.78016      114.05106
C         42.27570       56.26902      114.79662
O         43.02051       57.11716      115.26989
C         40.11971       57.53263      115.04066
C         38.85932       58.15020      114.40967
C         39.17604       59.21290      113.34683
C         37.89473       59.82804      112.76771
N         38.21395       60.83611      111.75695
H         39.78522       55.04280      113.90855
H         41.44711       57.50730      113.31528
H         40.69046       58.34375      115.54382
H         39.78518       56.81711      115.82503
H         38.26573       58.62459      115.22201
H         38.23944       57.34356      113.97641
H         39.74685       58.75575      112.51308
H         39.79022       60.01655      113.80837
H         37.30196       60.29935      113.58274
H         37.27469       59.03196      112.30208
H         37.32551       61.22906      111.37050
H         38.76937       61.61152      112.18619
H         38.75886       60.40288      110.97598
N         42.57822       54.94201      114.94486
C         43.81966       54.48348      115.59232
C         44.69435       53.62896      114.67630
O         45.85789       53.45067      115.00875
C         43.54706       53.79079      116.94671
C         42.70801       52.54847      116.86415
O         42.34209       51.99840      117.89050
O         42.24905       52.11281      115.68143
H         41.90800       54.25010      114.59116
H         44.44384       55.36982      115.83714
H         43.01079       54.51894      117.59498
H         44.50907       53.53750      117.44213
N         44.22863       53.07859      113.51622
C         45.07893       52.39884      112.54677
C         44.79628       50.91640      112.38546
O         45.38487       50.32388      111.49209
H         43.23601       53.16900      113.27610
H         46.15436       52.49973      112.80297
H         44.92795       52.90426      111.56864
N         43.97249       50.22666      113.22661
C         43.77921       48.77563      113.13047
C         43.01120       48.32086      111.88799
O         42.89000       47.11817      111.69638
C         43.09390       48.22760      114.40392
C         41.78551       48.89731      114.72063
O         41.60630       49.47135      115.92405
O         40.88560       48.93026      113.90084
H         43.54039       50.73306      114.00965
H         44.78266       48.29631      113.08708
H         43.77442       48.37644      115.27013
H         42.93233       47.13304      114.29452
N         42.45746       49.19759      111.00787
C         41.70225       48.78217      109.83812
C         40.43216       48.05498      110.21576
O         40.16127       47.00183      109.66099
H         42.55639       50.20851      111.16163
H         42.33253       48.16828      109.15783
H         41.39637       49.69618      109.28349
N         39.57321       48.63240      111.10008
C         38.22096       48.15498      111.41585
C         37.42858       49.26510      112.11083
O         38.00508       50.24157      112.57192
C         38.13928       46.85436      112.28097
C         38.67362       45.56365      111.64119
O         38.71227       47.05338      113.54722
H         39.87881       49.54435      111.46720
H         37.70685       47.98515      110.44352
H         37.05973       46.64391      112.44359
H         39.68373       46.86947      113.47469
H         38.44369       44.70370      112.30691
H         38.18430       45.38489      110.66075
H         39.77474       45.58836      111.52575
N         36.07084       49.19869      112.16085
C         35.23257       50.27403      112.67788
C         34.39273       49.74340      113.82559
O         33.75118       48.71177      113.68149
C         34.37148       50.85953      111.52189
C         35.24470       51.37133      110.33690
C         33.44123       51.98049      112.01810
C         36.20516       52.52627      110.66471
H         35.59906       48.37748      111.75062
H         35.84588       51.11303      113.06605
H         33.72617       50.04592      111.12273
H         34.57182       51.71207      109.52061
H         35.84463       50.52821      109.93272
H         32.74522       51.60015      112.79281
H         34.02239       52.81655      112.45314
H         32.82895       52.37380      111.17941
H         35.65945       53.42807      111.00761
H         36.94569       52.24015      111.43492
H         36.76949       52.80298      109.74948
N         34.32554       50.44464      114.99116
C         33.56285       50.03128      116.16232
C         32.34993       50.92707      116.31598
O         32.13848       51.80496      115.49454
C         34.45467       50.12590      117.43845
C         35.70720       49.24782      117.36160
O         34.79736       51.46290      117.72112
H         34.79604       51.35698      115.03532
H         33.19981       48.98642      116.05080
H         33.88227       49.75288      118.31255
H         35.57613       51.71505      117.16453
H         36.34948       49.57577      116.52007
H         36.28558       49.34274      118.30663
H         35.42716       48.18417      117.21920
N         31.51824       50.78057      117.38024
C         30.45408       51.73092      117.68861
C         31.05140       53.11489      117.91662
O         30.49525       54.09716      117.44618
C         29.67482       51.30033      118.95731
C         28.94554       49.96648      118.75695
O         30.54661       51.20323      120.05623
H         31.69675       50.00580      118.03491
H         29.72280       51.77786      116.84991
H         28.90445       52.08472      119.15157
H         30.00227       51.34728      120.87372
H         28.24174       50.03909      117.90100
H         29.65754       49.13732      118.56601
H         28.36408       49.71881      119.66981
N         32.20558       53.24513      118.63378
C         32.81724       54.52278      118.99864
C         33.27295       55.35882      117.79999
O         33.70677       56.48210      118.01711
C         34.06855       54.30553      119.90405
C         33.91028       53.33931      121.09691
C         32.78108       53.70816      122.06122
C         32.65934       52.63431      123.15317
N         31.59673       52.96077      124.10072
H         32.63924       52.37691      118.96368
H         32.05538       55.09907      119.56691
H         34.40403       55.29468      120.28655
H         34.89176       53.88802      119.28177
H         34.87303       53.31686      121.65326
H         33.74851       52.30600      120.73198
H         31.81611       53.75613      121.51318
H         32.99186       54.70064      122.51468
H         33.62353       52.53949      123.70047
H         32.43152       51.65332      122.67640
H         31.82166       53.85528      124.59309
H         30.68222       53.04857      123.60090
H         31.52416       52.19270      124.80671
N         33.27114       54.86653      116.52703
C         33.83147       55.57024      115.37877
C         32.75197       55.79079      114.34112
O         32.47678       56.93444      114.00550
C         35.00473       54.74203      114.81098
C         36.06356       54.51495      115.89646
C         37.17033       53.61503      115.45897
O         38.43121       54.02097      115.61537
O         36.94964       52.47953      115.07524
H         32.93243       53.91574      116.35821
H         34.23518       56.56412      115.67681
H         35.46049       55.25795      113.93736
H         34.62885       53.75228      114.48063
H         35.60015       54.02602      116.77513
H         36.48177       55.49109      116.22685
N         32.07915       54.73865      113.80057
C         31.01436       54.90780      112.83869
H         30.19542       55.51026      113.28623
H         31.39919       55.41293      111.92854
H         30.60598       53.91468      112.55243
H         32.31816       53.78232      114.08660
Ca        40.07860       52.52429      115.47939
O         38.34218       51.45153      117.91415
H         39.31072       51.45399      118.11963
H         37.93401       52.00425      118.62687
O         38.72209       48.75639      115.98686
H         39.00460       48.86886      116.92870
H         38.13050       47.96279      116.00011

Ca 1.0



