%chk=holoCaM.loop1.water2.frame72.chk
%nprocshared=20
%mem=10GB
%nosave
#b3lyp/svp scf=(tight,noincore,xqc) Test 
#IOP(5/87=12) Density=Current Pop=(MK,readradii) iop(6/33=2) iop(6/42=6)

holoCaM.loop1.water2.frame72 

   0  1 
C         60.64399       32.87884       33.46617
C         59.74915       34.01120       33.06684
O         60.07632       35.16124       33.32337
H         61.55161       33.25534       33.98207
H         60.09355       32.20031       34.15184
H         60.94952       32.31118       32.56202
N         58.58445       33.74538       32.41917
C         57.65305       34.78281       31.99858
C         57.10202       35.50001       33.22590
O         56.40132       34.86668       34.00501
C         56.51494       34.11335       31.20742
C         55.50817       35.05932       30.65663
O         54.51842       34.59975       30.12508
O         55.66807       36.39199       30.73772
H         58.36638       32.75760       32.20866
H         58.19501       35.49080       31.33139
H         55.98807       33.39925       31.87893
H         56.93348       33.53526       30.35395
N         57.42795       36.79955       33.50015
C         57.05367       37.42154       34.77087
C         55.63314       37.98177       34.77247
O         55.11088       38.20553       35.85522
C         58.08618       38.49367       35.20998
C         57.95150       39.81972       34.44642
C         59.07204       40.80941       34.78738
C         58.85119       42.13944       34.04965
N         59.91308       43.09836       34.35196
H         58.09582       37.27742       32.87729
H         57.13441       36.62824       35.54905
H         59.10728       38.06848       35.08121
H         57.94922       38.71983       36.29038
H         56.97408       40.28108       34.70346
H         57.96563       39.62508       33.36611
H         60.05091       40.37521       34.48527
H         59.08608       40.99773       35.88302
H         57.87251       42.57135       34.35804
H         58.82301       41.95917       32.95163
H         59.71655       43.99356       33.84800
H         59.94405       43.29050       35.37957
H         60.83654       42.72603       34.03190
N         55.00302       38.35484       33.61275
C         53.71065       39.05164       33.58157
C         52.65167       38.33897       32.73597
O         51.55822       38.87081       32.60512
C         53.92960       40.52566       33.16172
C         54.37389       40.76540       31.74434
O         54.41221       39.77470       30.83636
O         54.76185       41.87818       31.42610
H         55.49690       38.22089       32.72085
H         53.29482       39.11340       34.61059
H         54.71030       40.93461       33.84272
H         53.00527       41.11759       33.33003
N         52.87176       37.10453       32.19857
C         51.85007       36.32139       31.51645
C         51.48668       36.80921       30.12800
O         50.31488       37.04381       29.87060
H         53.76871       36.63473       32.37568
H         50.94797       36.24975       32.16306
H         52.23727       35.28930       31.38425
N         52.44253       36.91448       29.16210
C         52.17169       37.20501       27.75204
C         52.79279       36.15393       26.81539
O         52.78823       36.36317       25.61024
C         52.63589       38.63654       27.40622
C         54.09465       38.94886       27.59730
O         54.53348       40.18704       27.30776
O         54.88274       38.11856       28.01568
H         53.41960       36.76550       29.44222
H         51.07696       37.20593       27.55192
H         52.05760       39.34404       28.03809
H         52.37426       38.84503       26.34544
N         53.30242       34.98027       27.29222
C         53.90135       33.93940       26.46744
C         55.26271       34.27707       25.87714
O         55.78203       33.42362       25.16942
H         53.18550       34.76129       28.28271
H         53.19348       33.66883       25.65374
H         54.04893       33.03285       27.09522
N         55.90300       35.46749       26.08780
C         57.17435       35.81788       25.44590
C         58.24646       36.25437       26.44385
O         57.97455       36.35719       27.63374
C         56.93480       36.92759       24.38977
C         55.99537       36.46214       23.26835
O         56.45534       38.10826       24.98353
H         55.45162       36.17598       26.67583
H         57.58827       34.93470       24.91061
H         57.89858       37.17130       23.89627
H         55.50350       37.97099       25.22652
H         56.41412       35.56231       22.76966
H         54.98881       36.21491       23.66662
H         55.88828       37.26895       22.51347
N         59.51469       36.50603       25.99539
C         60.64652       36.92186       26.82030
C         61.22311       38.25460       26.32350
O         61.57931       38.36917       25.15864
C         61.70697       35.76730       26.87815
C         61.17223       34.66026       27.83899
C         63.08615       36.26285       27.34938
C         62.12161       33.48446       28.08387
H         59.71206       36.35973       24.99328
H         60.33513       37.08851       27.85934
H         61.86605       35.35744       25.85651
H         60.21831       34.25953       27.43641
H         60.96163       35.10817       28.83740
H         63.48383       37.03767       26.66346
H         63.01963       36.66716       28.36992
H         63.83734       35.44843       27.33034
H         61.63004       32.75466       28.76243
H         62.37756       32.98026       27.13084
H         63.04897       33.81554       28.59747
N         61.44450       39.26452       27.22257
C         62.18410       40.50184       26.95421
C         63.60981       40.35198       27.48272
O         63.96065       39.27239       27.92377
C         61.48181       41.72349       27.61845
C         60.11707       42.03828       27.00104
O         61.39510       41.56457       29.01631
H         61.20375       39.08389       28.20477
H         62.26999       40.68642       25.86069
H         62.07909       42.63850       27.43381
H         60.57682       41.04397       29.22683
H         59.42614       41.19201       27.14367
H         59.68591       42.93915       27.48918
H         60.22658       42.24453       25.91530
N         64.50066       41.38340       27.45357
C         65.89066       41.26413       27.90411
C         65.99812       40.78965       29.35357
O         66.66710       39.79480       29.59454
C         66.65890       42.60167       27.72298
C         66.78360       43.00026       26.24627
O         66.02454       43.63227       28.43730
H         64.18363       42.28863       27.08149
H         66.40589       40.50643       27.27040
H         67.69178       42.44624       28.11673
H         66.71040       44.32680       28.61834
H         67.37794       43.93450       26.16059
H         67.30512       42.20171       25.67749
H         65.79228       43.18095       25.78311
N         65.37954       41.45653       30.36725
C         65.49647       41.08094       31.78039
C         65.00482       39.67126       32.02902
O         65.71451       38.89694       32.65604
C         64.70809       42.06098       32.67286
C         65.34191       43.45993       32.64829
C         64.56971       44.44220       33.53516
C         65.24227       45.82457       33.61091
N         65.32908       46.48294       32.30522
H         64.79492       42.26690       30.11753
H         66.56254       41.13118       32.09799
H         64.73666       41.69590       33.72439
H         63.64455       42.10240       32.34717
H         65.35728       43.84169       31.60911
H         66.38887       43.38308       33.01675
H         64.52011       44.03358       34.56841
H         63.53107       44.55101       33.15331
H         66.26205       45.72385       34.04497
H         64.64082       46.46137       34.29620
H         65.70665       47.44859       32.43808
H         65.98396       45.97030       31.67293
H         64.38184       46.54643       31.86696
N         63.80712       39.26419       31.53518
C         63.26838       37.91611       31.71424
C         64.28488       36.87376       31.27551
O         64.54493       35.94394       32.02638
C         61.94922       37.76553       30.93104
C         60.86506       38.71278       31.47024
C         59.57293       38.64100       30.72323
O         59.38250       37.85356       29.81664
O         58.57894       39.43034       31.12661
H         63.28664       39.94269       30.95993
H         63.03986       37.73708       32.78900
H         61.57807       36.71954       31.01390
H         62.13839       37.99271       29.86872
H         61.19481       39.76841       31.42944
H         60.65607       38.45667       32.53172
N         64.95931       37.01339       30.10505
C         65.99297       36.09950       29.67760
H         66.80204       36.06400       30.43810
H         65.56840       35.08605       29.52723
H         66.43068       36.45343       28.71883
H         64.76649       37.82572       29.51589
Ca        56.48898       39.11186       30.47096
O         57.18140       42.07437       28.96286
H         56.22557       42.08396       28.70476
H         57.19192       41.66015       29.86142
O         57.44432       39.65499       27.14836
H         57.14835       40.42556       26.60025
H         58.19007       39.25866       26.63177

Ca 1.0



