%chk=holoCaM.loop3.water2.frame146.chk
%nprocshared=20
%mem=10GB
%nosave
#b3lyp/svp scf=(tight,noincore,xqc) Test 
#IOP(5/87=12) Density=Current Pop=(MK,readradii) iop(6/33=2) iop(6/42=6)

holoCaM.loop3.water2.frame146 

   0  1 
C          7.08909       96.83674        3.13184
C          7.50344       97.09502        4.54641
O          8.66227       97.41116        4.77784
H          6.28099       97.54005        2.84495
H          7.94984       96.97081        2.44215
H          6.72138       95.79261        3.04127
N          6.60140       96.94646        5.55689
C          6.94988       97.11454        6.95859
C          6.86250       95.75258        7.60524
O          5.77309       95.19648        7.66488
C          6.00068       98.13855        7.62399
C          6.39472       98.51333        9.02593
O          7.38737       98.03801        9.54949
O          5.65559       99.40818        9.70494
H          5.64062       96.64911        5.32341
H          7.99036       97.49746        7.04594
H          4.96116       97.74385        7.62542
H          5.99786       99.07310        7.03484
N          7.98819       95.11096        8.03443
C          7.93983       93.73458        8.51376
C          7.46153       93.63083        9.95635
O          7.19450       92.51843       10.38959
C          9.27275       92.99822        8.26923
C          9.73722       92.99990        6.79037
C          8.66673       92.49709        5.80208
C          9.22898       92.34418        4.38189
N          8.17119       91.97898        3.43781
H          8.90335       95.56678        7.89861
H          7.18119       93.18961        7.91147
H          9.14204       91.93976        8.58383
H         10.07612       93.44620        8.89360
H         10.63640       92.34912        6.72752
H         10.03915       94.02462        6.48281
H          7.83251       93.23086        5.76909
H          8.27264       91.51274        6.13552
H         10.01193       91.55321        4.38612
H          9.69389       93.29847        4.04927
H          7.47705       92.75860        3.36388
H          8.59212       91.81568        2.49467
H          7.68633       91.10593        3.74858
N          7.25906       94.73651       10.73374
C          6.56958       94.69932       12.02395
C          5.20534       95.38380       11.92864
O          4.44232       95.28459       12.87911
C          7.44933       95.25948       13.15779
C          7.99782       96.61951       12.85767
O          9.20830       96.76558       12.78168
O          7.19774       97.67401       12.61273
H          7.52911       95.65863       10.36790
H          6.33604       93.64792       12.29913
H          8.31063       94.56754       13.29534
H          6.88131       95.28342       14.11170
N          4.79117       96.01122       10.78604
C          3.42309       96.42873       10.54045
C          2.87195       97.52819       11.41547
O          1.69100       97.80668       11.25587
H          5.42668       96.10144        9.98890
H          2.77443       95.53364       10.65296
H          3.33639       96.77316        9.48613
N          3.60364       98.20168       12.35260
C          2.97090       99.19308       13.22395
C          2.43025      100.40828       12.46721
O          1.71762      101.19572       13.07305
C          3.90693       99.62677       14.37355
C          5.02291      100.55050       13.94536
N          5.15569      101.77077       14.51854
O          5.81689      100.19671       13.08855
H          4.59513       97.96446       12.49020
H          2.11326       98.67019       13.70460
H          4.33722       98.71953       14.85097
H          3.29434      100.14256       15.14447
H          4.50276      102.08777       15.25053
H          5.92053      102.40153       14.24020
N          2.74707      100.63683       11.15710
C          2.25045      101.75982       10.37989
C          3.35611      102.71302        9.96967
O          3.05740      103.64648        9.23745
H          3.38379       99.99749       10.66649
H          1.49416      102.34799       10.94434
H          1.75244      101.35526        9.47309
N          4.62894      102.60221       10.45909
C          5.67569      103.58762       10.21223
C          6.95028      102.91521        9.71980
O          7.39950      101.96315       10.34274
C          5.97208      104.38281       11.50278
C          4.75467      105.13983       12.00022
C          3.68309      104.46514       12.61521
C          4.67876      106.53571       11.84940
C          2.55775      105.16761       13.05491
C          3.54878      107.23638       12.28479
C          2.48312      106.55317       12.88766
O          1.38618      107.21510       13.30848
H          4.85344      101.84541       11.12044
H          5.34833      104.34363        9.46359
H          6.77318      105.11137       11.24643
H          6.36588      103.73404       12.31267
H          3.71437      103.39456       12.76061
H          5.48622      107.08282       11.37952
H          1.74131      104.63249       13.52410
H          3.50126      108.30961       12.14955
H          1.29101      108.17280       13.20545
N          7.62072      103.40902        8.63744
C          8.87802      102.86326        8.12380
C         10.00392      103.87152        8.32884
O          9.92742      104.98559        7.82893
C          8.70951      102.47282        6.62198
C          7.81408      101.21090        6.52777
C         10.06637      102.23380        5.92619
C          7.52915      100.75480        5.09476
H          7.23954      104.24358        8.16502
H          9.16667      101.94206        8.67766
H          8.22722      103.32148        6.08723
H          6.84012      101.41994        7.01946
H          8.30134      100.36937        7.07138
H         10.69175      103.14777        5.96110
H         10.61026      101.39471        6.39499
H          9.93703      102.02489        4.84730
H          8.45644      100.43870        4.57616
H          6.85977       99.87338        5.10540
H          7.03387      101.56620        4.52445
N         11.11180      103.50090        9.03683
C         12.29627      104.33629        9.22385
C         13.25639      104.20874        8.04140
O         12.96264      103.48547        7.10295
C         12.99964      103.92128       10.53283
O         13.46167      102.60129       10.44151
H         11.13162      102.55265        9.43966
H         11.98769      105.39816        9.34273
H         12.26963      104.00838       11.36901
H         13.85651      104.59629       10.74238
H         13.84360      102.37635       11.32893
N         14.44660      104.87782        8.03894
C         15.44554      104.77027        6.97429
C         15.94224      103.34447        6.81365
O         15.92445      102.83263        5.70361
C         16.64198      105.68057        7.27731
H         14.65817      105.49189        8.83957
H         15.00299      105.11797        6.01385
H         17.38870      105.61514        6.45634
H         16.30443      106.73525        7.35782
H         17.13371      105.38949        8.23027
N         16.39807      102.64359        7.88983
C         16.87442      101.26427        7.81672
C         15.80963      100.34700        7.24896
O         16.08526       99.61363        6.30966
C         17.26669      100.77204        9.21765
H         16.38184      103.10990        8.81040
H         17.78273      101.21435        7.17586
H         16.39668      100.80448        9.90937
H         17.64093       99.72673        9.16848
H         18.07226      101.41241        9.63487
N         14.55783      100.35239        7.77938
C         13.47953       99.47273        7.33331
C         13.13808       99.67066        5.86470
O         12.60415       98.75070        5.26003
C         12.21733       99.71902        8.18197
C         12.44592       99.38266        9.66035
C         11.25766       99.75430       10.48705
O         10.08034       99.15776       10.26092
O         11.37323      100.53134       11.42073
H         14.37671      101.02163        8.54002
H         13.81008       98.41801        7.46881
H         11.37143       99.10238        7.80269
H         11.94554      100.79056        8.09115
H         13.32476       99.91783       10.06921
H         12.63588       98.29264        9.76389
N         13.39195      100.84517        5.22801
C         13.09449      101.05313        3.82932
H         13.37073      102.08921        3.53758
H         13.68190      100.34232        3.21057
H         12.01020      100.90667        3.64233
H         13.80243      101.62505        5.74993
Ca         8.48652       99.31935       11.82185
O          8.96308      102.36508       12.75209
H          9.85860      102.03753       13.01664
H          9.14652      103.12410       12.14338
O          8.24179       99.67647       14.83608
H          7.42849       99.68855       15.40021
H          8.62130      100.58594       14.92815

Ca 1.0



