%chk=holoCaM.loop3.water2.frame248.chk
%nprocshared=20
%mem=10GB
%nosave
#b3lyp/svp scf=(tight,noincore,xqc) Test 
#IOP(5/87=12) Density=Current Pop=(MK,readradii) iop(6/33=2) iop(6/42=6)

holoCaM.loop3.water2.frame248 

   0  1 
C         42.95560       88.92557       60.08175
C         43.12203       90.21261       60.82238
O         42.32275       91.11871       60.63174
H         42.07067       88.97439       59.41205
H         43.86325       88.71602       59.48169
H         42.79737       88.10629       60.81586
N         44.11999       90.34592       61.73817
C         44.21805       91.52119       62.58384
C         44.62741       92.74898       61.77909
O         45.73646       92.77576       61.26264
C         45.19600       91.26301       63.75297
C         44.99922       92.26441       64.84561
O         43.97894       93.13467       64.76433
O         45.72570       92.25880       65.82161
H         44.75079       89.54563       61.90312
H         43.20640       91.67090       63.01413
H         46.24471       91.27347       63.38137
H         45.00123       90.26870       64.20857
N         43.76173       93.79088       61.60572
C         44.05332       94.92112       60.72720
C         44.81864       96.04449       61.41118
O         45.32547       96.90353       60.70271
C         42.75755       95.48397       60.09826
C         41.93000       94.44502       59.31112
C         42.72322       93.67448       58.23614
C         43.45821       94.55583       57.20864
N         42.54044       95.35732       56.40152
H         42.81345       93.69285       61.98533
H         44.70635       94.55734       59.90719
H         43.02289       96.31722       59.41331
H         42.10823       95.90952       60.89650
H         41.06743       94.96880       58.84656
H         41.50459       93.69758       60.01464
H         42.03019       92.98636       57.70597
H         43.47865       93.03797       58.74354
H         44.04014       93.88823       56.53633
H         44.18879       95.22188       57.71524
H         43.09796       95.90918       55.71011
H         41.88229       94.73160       55.88355
H         42.00595       96.02489       57.00117
N         44.91265       96.13923       62.76673
C         45.66033       97.19349       63.45659
C         46.71379       96.60157       64.39387
O         47.40386       97.37292       65.04587
C         44.67808       98.18134       64.13946
C         43.69039       97.48817       65.01407
O         42.60288       97.17909       64.55254
O         44.09426       96.94824       66.16947
H         44.40932       95.45140       63.34588
H         46.22779       97.81650       62.73090
H         44.10816       98.68151       63.32557
H         45.20772       98.97764       64.70522
N         46.95883       95.25464       64.45503
C         48.06070       94.67701       65.20930
C         47.94244       94.76147       66.71852
O         48.89624       94.35816       67.36989
H         46.42377       94.60269       63.86625
H         49.00061       95.17947       64.88953
H         48.15726       93.60058       64.94706
N         46.84708       95.26459       67.36379
C         46.82024       95.42487       68.81876
C         46.85882       94.10066       69.59602
O         46.99857       94.15960       70.80899
C         45.63529       96.32426       69.27751
C         44.25332       95.72342       69.18130
N         43.16833       96.43312       69.56529
O         44.10135       94.58968       68.77582
H         46.05546       95.60875       66.80978
H         47.73820       95.99765       69.07881
H         45.65492       97.26377       68.68253
H         45.79337       96.59287       70.34300
H         43.26469       97.39495       69.91919
H         42.22686       96.01402       69.51225
N         46.71693       92.88335       68.98422
C         46.74694       91.60342       69.68921
C         45.40426       90.88229       69.67986
O         45.31580       89.81698       70.27414
H         46.56352       92.84698       67.97250
H         47.02127       91.75032       70.75572
H         47.52610       90.95979       69.22870
N         44.30155       91.43903       69.10583
C         42.93887       90.94255       69.25346
C         42.20656       90.98807       67.92802
O         42.24117       92.02580       67.27806
C         42.18715       91.89301       70.21012
C         42.77702       91.89906       71.59770
C         43.39153       93.05692       72.10239
C         42.70545       90.75167       72.40529
C         43.92898       93.06570       73.39197
C         43.23633       90.76522       73.69834
C         43.85093       91.92374       74.19571
O         44.36534       91.95244       75.44151
H         44.40239       92.33729       68.63209
H         42.90639       89.91933       69.68881
H         41.11712       91.59867       70.28963
H         42.21696       92.91991       69.78376
H         43.45979       93.95225       71.49829
H         42.22858       89.85109       72.03873
H         44.40313       93.96353       73.76761
H         43.16658       89.87653       74.31292
H         44.32446       91.18729       76.03271
N         41.42107       89.94959       67.52268
C         40.53836       90.04369       66.36233
C         39.08674       90.05846       66.81271
O         38.72687       89.34608       67.74041
C         40.83008       88.98224       65.26991
C         40.58754       87.53153       65.74306
C         42.25941       89.18450       64.74277
C         40.72146       86.51048       64.60974
H         41.37671       89.09978       68.10546
H         40.69893       91.01038       65.84686
H         40.12974       89.19200       64.42827
H         39.55062       87.44593       66.12949
H         41.29218       87.26803       66.55991
H         43.01097       88.96899       65.53095
H         42.46696       88.55599       63.85435
H         42.37844       90.23560       64.42694
H         40.48431       85.49727       64.99428
H         40.01253       86.75332       63.78878
H         41.75293       86.48209       64.20473
N         38.19694       90.87137       66.17885
C         36.79344       91.01396       66.53685
C         35.92492       90.45698       65.42768
O         36.45575       89.98013       64.43823
C         36.48871       92.50769       66.77578
O         36.69669       93.24869       65.59798
H         38.52345       91.41057       65.36918
H         36.56285       90.44983       67.46610
H         37.13535       92.88011       67.60524
H         35.43671       92.65384       67.09739
H         37.34256       93.97366       65.80383
N         34.56929       90.47555       65.52492
C         33.69229       90.00831       64.45579
C         33.88336       90.84549       63.20240
O         34.07096       90.28312       62.13328
C         32.23067       90.07564       64.90335
H         34.14523       90.84870       66.38864
H         33.90980       88.93920       64.23111
H         31.57035       89.69048       64.09671
H         32.08776       89.43754       65.80189
H         31.93472       91.11689       65.14989
N         33.88488       92.20776       63.28089
C         34.06833       93.09641       62.13496
C         35.31778       92.74806       61.34757
O         35.21992       92.54528       60.14521
C         34.14675       94.55329       62.61246
H         33.77449       92.63316       64.21474
H         33.18798       93.00732       61.46024
H         35.01048       94.69863       63.29741
H         34.26026       95.23845       61.74543
H         33.21718       94.82741       63.15542
N         36.52155       92.62819       61.97149
C         37.75908       92.26214       61.28218
C         37.57864       90.94229       60.54387
O         37.75478       90.91955       59.33322
C         38.93530       92.22988       62.29260
C         39.24531       93.66538       62.78179
C         40.28046       93.74439       63.86841
O         41.31168       94.36812       63.69224
O         40.03182       93.22998       65.08202
H         36.54307       92.77422       62.99157
H         37.99962       93.03408       60.51664
H         39.84980       91.82434       61.80777
H         38.66926       91.55699       63.13335
H         38.33340       94.15156       63.18199
H         39.59256       94.25406       61.90425
N         37.16692       89.81938       61.18815
C         36.88697       88.58233       60.49051
H         36.08814       88.74838       59.73470
H         37.80219       88.20777       59.98762
H         36.52816       87.81413       61.20898
H         37.00893       89.85082       62.19755
Ca        43.57742       94.80217       66.15267
O         40.32625       94.08766       68.09783
H         39.65950       94.81440       68.17798
H         39.84037       93.27309       68.38156
O         40.95066       96.79948       66.89541
H         41.16363       97.57839       67.46782
H         40.49415       97.18672       66.10688

Ca 1.0



