%chk=holoCaM-CaMKII.loop4.water1.frame362.chk
%nprocshared=20
%mem=10GB
%nosave
#b3lyp/svp scf=(tight,noincore,xqc) Test 
#IOP(5/87=12) Density=Current Pop=(MK,readradii) iop(6/33=2) iop(6/42=6)

holoCaM-CaMKII.loop4.water1.frame362 

   -3  1 
C         51.66896       61.33846       20.08395
C         51.62340       61.39382       18.58475
O         50.91202       60.60486       17.98108
H         52.35424       62.10925       20.49811
H         50.65236       61.52664       20.48907
H         52.02012       60.33988       20.41372
N         52.33583       62.33789       17.91563
C         52.28128       62.50510       16.47003
C         52.93769       61.33234       15.73505
O         53.97044       60.86251       16.19215
C         52.93069       63.84574       16.09905
C         52.68960       64.10716       14.66009
O         53.62888       64.25916       13.90878
O         51.42961       64.09070       14.18782
H         52.89240       63.00940       18.46881
H         51.20931       62.58282       16.17723
H         54.01933       63.84172       16.33279
H         52.44691       64.66491       16.67420
N         52.38991       60.81671       14.58511
C         52.87580       59.59164       13.93338
C         53.47708       59.83622       12.52892
O         54.15557       58.94437       12.04090
C         51.71151       58.53073       13.89708
C         51.02521       58.41018       15.28972
C         52.19552       57.14532       13.41901
C         49.82333       57.45933       15.33025
H         51.55592       61.27476       14.19642
H         53.70202       59.17515       14.54933
H         50.94010       58.89321       13.18124
H         50.63089       59.40515       15.57711
H         51.76207       58.09298       16.05792
H         52.95171       56.73512       14.12155
H         51.35204       56.43081       13.34320
H         52.62010       57.18207       12.39994
H         49.34739       57.51237       16.33219
H         49.07173       57.74525       14.56582
H         50.12649       56.40608       15.16953
N         53.27846       60.98461       11.81164
C         53.83849       61.21965       10.46453
C         54.68624       62.49864       10.39046
O         55.12507       62.85256        9.30490
C         52.71414       61.19153        9.39520
C         51.57117       62.08307        9.74409
O         50.48027       61.59701        9.99574
O         51.78435       63.38305        9.97406
H         52.67545       61.71557       12.21179
H         54.52643       60.39934       10.16614
H         52.32599       60.15071        9.33639
H         53.11676       61.45519        8.39385
N         55.03351       63.18785       11.51081
C         55.93848       64.32850       11.53464
C         55.39893       65.60444       10.91909
O         56.08851       66.20065       10.10419
H         54.73000       62.82644       12.42146
H         56.91166       64.04934       11.07407
H         56.14281       64.57474       12.59967
N         54.21600       66.13240       11.34280
C         53.75286       67.48187       11.02393
C         53.54876       68.30918       12.30682
O         53.09641       69.44102       12.20586
C         52.49350       67.43297       10.12882
C         51.27157       66.82306       10.74634
O         50.24819       66.72526       10.08923
O         51.27748       66.40287       12.01818
H         53.63377       65.56939       11.97002
H         54.51587       68.01832       10.41766
H         52.74608       66.85754        9.21206
H         52.23139       68.46866        9.82033
N         53.91886       67.83480       13.53958
C         53.84692       68.61244       14.77093
C         52.46204       68.76071       15.37772
O         52.37750       69.38922       16.42400
H         54.37833       66.91791       13.61781
H         54.31029       69.60901       14.60488
H         54.45547       68.09172       15.54301
N         51.34470       68.20948       14.82286
C         50.00878       68.30338       15.41836
C         49.43963       66.91908       15.69256
O         50.04123       65.94360       15.27598
C         49.10089       69.18791       14.52970
C         48.89414       68.70310       13.07910
C         47.99070       67.50508       12.98342
N         46.69398       67.60654       13.35444
O         48.41684       66.44836       12.54316
H         51.44407       67.69261       13.94743
H         50.07743       68.80947       16.40576
H         49.60168       70.17842       14.46935
H         48.11782       69.34898       15.02044
H         49.87452       68.50910       12.60334
H         48.41583       69.51450       12.49092
H         46.31245       68.49929       13.69828
H         46.06079       66.80184       13.27853
N         48.31826       66.74846       16.45153
C         47.78938       65.43013       16.81001
C         46.31223       65.36211       16.44207
O         45.54516       66.17772       16.93659
C         47.99837       65.16211       18.33269
C         47.57436       63.73210       18.71590
C         49.46914       65.35117       18.74395
H         47.85933       67.58333       16.84809
H         48.34340       64.62897       16.27185
H         47.38877       65.88536       18.91807
H         47.71205       63.56440       19.80572
H         46.50768       63.56004       18.48799
H         48.18592       62.98103       18.16946
H         49.80249       66.39159       18.55017
H         49.58825       65.16444       19.83342
H         50.12998       64.65060       18.18913
N         45.83364       64.39358       15.60909
C         44.40715       64.21014       15.33472
C         43.80337       63.28774       16.37323
O         44.52040       62.80545       17.23252
C         44.21025       63.57210       13.94095
C         44.70671       64.45541       12.83364
N         45.95044       64.29509       12.33022
O         43.97621       65.32501       12.38273
H         46.48778       63.67553       15.26825
H         43.87395       65.18529       15.37536
H         43.13930       63.35418       13.73957
H         44.73393       62.59195       13.90352
H         46.58328       63.57860       12.71119
H         46.28731       64.90467       11.57131
N         42.47720       62.98284       16.34967
C         41.88537       61.98420       17.23287
C         42.45720       60.61240       16.90431
O         42.91178       59.92749       17.80970
C         40.35008       61.98384       17.09017
C         39.68812       60.98723       18.01796
C         39.85149       61.07957       19.41343
C         38.89456       59.95499       17.49162
C         39.23884       60.15132       20.26096
C         38.27916       59.03132       18.34151
C         38.45096       59.12561       19.72985
O         37.86427       58.24007       20.56028
H         41.87427       63.45578       15.65901
H         42.11519       62.25023       18.28851
H         40.07981       61.77089       16.03279
H         39.96666       62.99744       17.33935
H         40.45296       61.86643       19.85011
H         38.75006       59.86423       16.42258
H         39.37588       60.23042       21.33250
H         37.66945       58.24293       17.91912
H         37.30938       57.51765       20.23310
N         42.49606       60.16697       15.61122
C         43.04408       58.86523       15.21738
C         44.52098       58.66534       15.57155
O         45.00554       57.55641       15.39187
C         42.83268       58.60822       13.70522
C         43.61928       59.57190       12.79557
C         43.39121       59.23877       11.34931
O         44.33014       58.92234       10.63609
O         42.15005       59.29446       10.82918
H         42.09691       60.77828       14.88379
H         42.46480       58.09159       15.76852
H         41.74661       58.68554       13.47856
H         43.15090       57.56682       13.47467
H         44.70565       59.49546       13.01810
H         43.30194       60.62068       12.96601
N         45.28733       59.66218       16.09851
C         46.66578       59.48387       16.53471
C         46.71665       59.42581       18.05463
O         47.41829       58.57431       18.58208
C         47.57901       60.59110       15.96909
C         47.54233       60.62926       14.43192
C         48.56924       61.56891       13.86506
O         49.38588       61.15863       13.05714
O         48.58871       62.86575       14.22121
H         44.87839       60.59000       16.23412
H         47.07299       58.51689       16.16578
H         48.61610       60.38260       16.30755
H         47.27798       61.58412       16.36657
H         46.53496       60.95201       14.09851
H         47.73376       59.61377       14.02454
N         45.93258       60.23709       18.82186
C         45.85454       60.16436       20.26554
H         44.81819       59.88553       20.55762
H         46.55093       59.41414       20.69194
H         46.08664       61.15993       20.69643
H         45.31396       60.91670       18.37434
Ca        51.05704       63.80107       12.02025
O         48.24300       63.32586       10.53038
H         47.88551       62.60885        9.94874
H         48.13026       64.15521       10.00181

Ca 1.0



