%chk=holoCaM.loop3.water3.frame245.chk
%nprocshared=20
%mem=10GB
%nosave
#b3lyp/svp scf=(tight,noincore,xqc) Test 
#IOP(5/87=12) Density=Current Pop=(MK,readradii) iop(6/33=2) iop(6/42=6)

holoCaM.loop3.water3.frame245 

   0  1 
C         35.49371       73.31824       51.40824
C         34.70335       74.56139       51.12613
O         33.60340       74.45285       50.61001
H         36.46374       73.55647       51.89382
H         34.91453       72.65397       52.08239
H         35.69931       72.78664       50.45514
N         35.22385       75.78614       51.40983
C         34.54782       77.04772       51.14151
C         35.26814       77.67887       49.96706
O         36.29255       78.32417       50.13904
C         34.53896       77.86970       52.44062
C         33.96644       79.24899       52.36567
O         33.51442       79.79554       51.22877
O         34.00395       79.94101       53.36720
H         36.18040       75.83469       51.79465
H         33.49432       76.88433       50.84585
H         35.58515       77.98059       52.79662
H         33.96554       77.30950       53.20894
N         34.88110       77.30756       48.71456
C         35.65456       77.56358       47.50585
C         35.62265       79.02967       47.11635
O         36.67436       79.65452       47.12144
C         35.19120       76.60728       46.37532
C         35.46041       75.14508       46.80707
C         35.13099       74.10303       45.73498
C         35.43167       72.66593       46.21702
N         36.84640       72.46504       46.55008
H         34.05659       76.69670       48.64128
H         36.71564       77.29436       47.71044
H         35.77984       76.81896       45.45664
H         34.11183       76.75205       46.14507
H         34.87561       74.88764       47.71530
H         36.53917       75.07449       47.05008
H         35.71912       74.31274       44.81621
H         34.04953       74.16651       45.48349
H         35.15261       71.96238       45.40239
H         34.80627       72.42165       47.10529
H         37.10811       72.99919       47.40910
H         37.01083       71.45274       46.75210
H         37.45420       72.75303       45.74931
N         34.45872       79.65803       46.78546
C         34.39080       81.09346       46.47096
C         34.81651       81.98850       47.64569
O         34.96259       83.18388       47.43065
C         32.97058       81.48219       45.96628
C         31.88601       81.13082       46.95285
O         30.70895       81.26317       46.66548
O         32.25529       80.62150       48.13795
H         33.60118       79.08675       46.74853
H         35.10153       81.28861       45.63755
H         32.77495       80.91096       45.03382
H         32.92719       82.56631       45.72061
N         35.05557       81.49366       48.89795
C         35.57228       82.29589       49.99447
C         34.63884       83.40844       50.40603
O         35.04523       84.56044       50.35116
H         34.90929       80.49574       49.09279
H         36.56074       82.71328       49.69954
H         35.73804       81.64328       50.87988
N         33.38408       83.13247       50.86658
C         32.45791       84.15921       51.34531
C         32.10275       83.97948       52.82285
O         31.38943       84.82123       53.35278
C         31.18527       84.17887       50.47478
C         30.26634       83.00902       50.74256
N         29.00465       83.21249       51.18805
O         30.66104       81.87034       50.56594
H         33.08358       82.15154       50.88579
H         32.93648       85.15738       51.24192
H         31.47363       84.20156       49.40083
H         30.63297       85.11832       50.69040
H         28.64289       84.16476       51.34065
H         28.38358       82.41258       51.38009
N         32.55900       82.91583       53.54872
C         32.30300       82.71757       54.96357
C         31.62605       81.39538       55.28727
O         31.58807       81.07294       56.46469
H         33.16364       82.21884       53.10226
H         31.69915       83.54006       55.40700
H         33.29135       82.72351       55.47134
N         31.01399       80.60900       54.34180
C         30.30329       79.37316       54.70239
C         30.57376       78.23113       53.72176
O         31.20791       78.43831       52.70358
C         28.77832       79.62481       54.74883
C         28.37962       80.67802       55.75259
C         28.50003       82.04365       55.44428
C         27.86267       80.30041       57.00355
C         28.11100       83.01356       56.37285
C         27.48315       81.27130       57.93354
C         27.60355       82.63244       57.61976
O         27.23317       83.57929       58.50507
H         30.95739       80.94370       53.36982
H         30.62274       79.03135       55.71115
H         28.28080       78.67590       55.03916
H         28.37475       79.89587       53.74990
H         28.88363       82.35739       54.48116
H         27.76238       79.25388       57.26439
H         28.20152       84.06259       56.12115
H         27.09399       80.96361       58.89599
H         26.87501       83.35618       59.37623
N         30.04139       76.99158       53.96554
C         30.08657       75.87077       53.02610
C         28.65480       75.56353       52.61135
O         27.80324       75.42778       53.47719
C         30.74105       74.60197       53.65240
C         32.17707       74.90194       54.14683
C         30.75360       73.45628       52.60850
C         32.83057       73.71848       54.86949
H         29.52494       76.84259       54.84365
H         30.68051       76.13640       52.13040
H         30.13093       74.28229       54.52606
H         32.14121       75.74255       54.87161
H         32.81775       75.20411       53.29224
H         31.35333       73.74491       51.71978
H         31.16176       72.51580       53.02432
H         29.72874       73.21093       52.26662
H         32.20552       73.40276       55.73207
H         32.98371       72.85372       54.19315
H         33.82989       74.01923       55.24660
N         28.33654       75.38623       51.29643
C         26.98034       75.10222       50.83222
C         26.85717       73.67323       50.33414
O         27.83278       72.94451       50.33714
C         26.60251       76.10448       49.72699
O         27.42320       75.94757       48.59807
H         29.09300       75.41768       50.60033
H         26.25493       75.21212       51.66660
H         26.65947       77.14543       50.11355
H         25.55043       75.95679       49.40846
H         28.22861       76.50807       48.74308
N         25.64931       73.20396       49.90897
C         25.43288       71.85299       49.39676
C         26.24237       71.60658       48.13913
O         26.93313       70.59978       48.06479
C         23.94628       71.64471       49.08500
H         24.84060       73.84119       49.95708
H         25.70878       71.10604       50.17502
H         23.59544       72.36497       48.31546
H         23.77498       70.61078       48.71510
H         23.34485       71.78718       50.00817
N         26.21582       72.50808       47.11654
C         26.95534       72.35300       45.86572
C         28.42223       72.06950       46.12015
O         28.93971       71.09172       45.59911
C         26.81131       73.62373       45.01711
H         25.65731       73.36617       47.25079
H         26.52632       71.50457       45.28792
H         27.22030       74.50659       45.55581
H         27.35446       73.51007       44.05505
H         25.73958       73.81345       44.79493
N         29.13796       72.86681       46.95525
C         30.54057       72.63801       47.29367
C         30.74210       71.24314       47.86259
O         31.55226       70.50260       47.32157
C         31.01248       73.72514       48.27833
C         31.09278       75.08629       47.55842
C         31.41043       76.22487       48.47321
O         31.59044       77.33590       48.00568
O         31.47958       76.04852       49.80167
H         28.64046       73.65487       47.39809
H         31.16794       72.71474       46.37669
H         32.02779       73.48178       48.66042
H         30.31369       73.76287       49.14393
H         30.13592       75.33486       47.05526
H         31.88979       75.01842       46.78634
N         30.01707       70.79599       48.92090
C         30.15772       69.45245       49.43896
H         31.18877       69.29707       49.81959
H         29.43794       69.28821       50.26895
H         29.94231       68.71305       48.63716
H         29.32245       71.41250       49.35259
Ca        31.71265       79.42013       49.93722
O         28.52986       81.52566       48.57898
H         28.29175       81.22321       47.66886
H         27.72778       82.01261       48.89232
O         28.08883       79.34984       50.89586
H         27.45331       79.04197       51.58976
H         27.51367       79.58138       50.12405
O         29.14003       78.34878       47.04208
H         29.69586       77.97524       46.31297
H         28.70216       79.13632       46.63631

Ca 1.0



