%chk=holoCaM-CaMKII.loop2.water2.frame479.chk
%nprocshared=20
%mem=10GB
%nosave
#b3lyp/svp scf=(tight,noincore,xqc) Test 
#IOP(5/87=12) Density=Current Pop=(MK,readradii) iop(6/33=2) iop(6/42=6)

holoCaM-CaMKII.loop2.water2.frame479 

   -2  1 
C         68.14175       72.83162       88.03907
C         68.35366       73.10157       89.50307
O         69.04700       72.33642       90.15671
H         67.50161       73.61049       87.57054
H         69.12015       72.82878       87.51447
H         67.64861       71.84734       87.90324
N         67.78905       74.19453       90.08271
C         67.97623       74.56059       91.48151
C         67.42025       73.50831       92.43040
O         66.26196       73.13715       92.30231
C         67.30962       75.92197       91.74387
C         67.51001       76.34350       93.16305
O         68.75539       76.40306       93.66610
O         66.54959       76.59456       93.87281
H         67.22180       74.81785       89.48631
H         69.06551       74.68933       91.67026
H         66.22281       75.87880       91.51126
H         67.78094       76.68309       91.08473
N         68.19972       73.02846       93.44556
C         67.76594       72.01872       94.40450
C         67.75165       72.52037       95.84970
O         67.42943       71.71840       96.71666
C         68.71730       70.82121       94.29873
H         69.15892       73.39244       93.54353
H         66.73866       71.66685       94.16590
H         68.40090       70.00567       94.98392
H         68.71927       70.42446       93.26195
H         69.75298       71.12730       94.56602
N         68.07027       73.80432       96.20543
C         68.15557       74.21572       97.61616
C         68.14485       75.73499       97.88860
O         68.20617       76.09640       99.05626
C         69.40754       73.56119       98.24868
C         70.66226       73.96599       97.52984
O         71.42850       73.03963       96.92268
O         70.98577       75.13817       97.48450
H         68.30595       74.46273       95.45946
H         67.25199       73.84341       98.14854
H         69.32006       72.45619       98.20178
H         69.49135       73.83740       99.32176
N         68.02039       76.67873       96.91303
C         67.92644       78.10698       97.16860
C         69.18842       78.69628       97.75507
O         69.11647       79.30964       98.81023
H         67.92361       76.40123       95.93995
H         67.05409       78.30863       97.82901
H         67.74045       78.62819       96.20347
N         70.37648       78.58478       97.09567
C         71.61526       79.22634       97.53532
C         72.17992       80.19600       96.48640
O         73.27506       80.70153       96.69232
C         72.66007       78.17710       97.97294
C         72.96036       77.02733       97.00498
N         74.22029       76.39144       97.36806
O         72.97829       77.40706       95.66710
H         70.40072       78.02992       96.22674
H         71.44435       79.84787       98.44194
H         72.30883       77.69398       98.91109
H         73.60042       78.71442       98.22470
H         74.13309       75.98907       98.32835
H         74.39104       75.60105       96.71528
N         71.46857       80.56968       95.38306
C         71.93238       81.55581       94.41119
C         73.06051       81.10637       93.49154
O         73.44776       81.90303       92.64858
H         70.50798       80.22545       95.27058
H         72.22866       82.48364       94.94717
H         71.07916       81.81174       93.74644
N         73.62798       79.86989       93.56675
C         74.68892       79.39520       92.67667
C         74.27809       78.10848       91.97261
O         73.23195       77.55153       92.27525
C         75.98253       79.12720       93.49935
C         76.58640       80.41920       94.04589
O         75.72171       78.25874       94.57432
H         73.30113       79.22792       94.28964
H         74.91358       80.14574       91.88744
H         76.77566       78.68765       92.85202
H         75.65395       77.34126       94.20213
H         77.51677       80.18536       94.60783
H         76.85083       81.09750       93.20644
H         75.87871       80.93514       94.72677
N         75.12411       77.54599       91.06123
C         74.96508       76.20461       90.51631
C         76.08071       75.36901       91.10525
O         77.24693       75.67700       90.89597
C         74.96095       76.19594       88.95392
C         73.61855       76.78887       88.44723
C         75.16518       74.76486       88.40332
C         73.46853       76.82010       86.92288
H         75.99120       78.05018       90.81843
H         74.00978       75.75498       90.84878
H         75.81426       76.80636       88.58289
H         73.51529       77.82771       88.82602
H         72.77482       76.18658       88.85217
H         74.34667       74.09298       88.72930
H         75.22604       74.75997       87.29718
H         76.13531       74.34561       88.74075
H         73.46417       75.79691       86.49293
H         72.49182       77.27809       86.65988
H         74.28337       77.41433       86.46130
N         75.77496       74.28064       91.86334
C         76.77926       73.40716       92.45013
C         77.10241       72.29497       91.47800
O         76.50670       72.24991       90.41215
C         76.23358       72.80518       93.75898
C         75.75347       73.86105       94.70510
O         74.58362       73.87114       95.04976
O         76.60045       74.79703       95.17388
H         74.78465       74.02229       91.98471
H         77.70246       73.98681       92.67386
H         77.02007       72.21267       94.26875
H         75.37818       72.13181       93.51937
N         78.03751       71.34971       91.76780
C         78.29382       70.23808       90.86528
C         77.06909       69.32487       90.72382
O         76.69169       69.07648       89.58709
C         79.53409       69.41929       91.27268
C         79.85128       68.42395       90.17674
C         80.23031       68.87997       88.89810
C         79.73795       67.04325       90.40361
C         80.47649       67.97297       87.86635
C         79.98449       66.13794       89.36518
C         80.35028       66.60248       88.09804
H         78.58064       71.42917       92.64159
H         78.53238       70.68121       89.87323
H         79.35189       68.91175       92.24010
H         80.41264       70.08737       91.40621
H         80.32889       69.93915       88.69452
H         79.44127       66.66891       91.37506
H         80.75877       68.33527       86.88580
H         79.88430       65.07519       89.53992
H         80.53441       65.90184       87.29425
N         76.37479       68.79398       91.79038
C         75.22993       67.89457       91.64881
C         73.98384       68.55003       91.05454
O         72.98628       67.85479       90.91984
C         75.00116       67.37481       93.07338
C         75.40620       68.56314       93.90866
C         76.67354       69.01933       93.19302
H         75.48475       67.02306       91.00602
H         73.99333       66.95329       93.27651
H         75.75424       66.57942       93.28029
H         74.62244       69.34557       93.78014
H         75.53881       68.36636       94.99382
H         76.82997       70.07366       93.46167
H         77.54966       68.40162       93.48166
N         73.98050       69.83632       90.60301
C         72.88594       70.42456       89.84540
C         73.29145       70.40910       88.38115
O         72.59555       69.79688       87.58333
C         72.59790       71.85799       90.33665
C         72.16443       71.90556       91.81445
C         72.01673       73.31580       92.33285
O         71.75297       73.52382       93.63752
O         72.18834       74.27635       91.60128
H         74.82613       70.40570       90.69389
H         71.95498       69.82203       89.94639
H         71.80298       72.31317       89.70585
H         73.52301       72.46194       90.22352
H         72.94825       71.41637       92.43068
H         71.20885       71.35501       91.94996
N         74.44271       71.01462       87.96941
C         74.94675       70.96114       86.61278
H         75.94737       70.47646       86.61854
H         74.28565       70.38191       85.93572
H         75.05434       71.99202       86.21729
H         75.01863       71.51884       88.65229
Ca        72.13938       75.55901       94.58424
O         70.49016       78.49917       93.45059
H         69.63747       78.65905       93.92782
H         70.49038       79.17514       92.72903
O         70.64620       76.85763       91.06687
H         70.66542       76.19823       90.32975
H         70.95356       77.70288       90.65340

Ca 1.0



