%chk=holoCaM-CaMKII.loop2.water1.frame224.chk
%nprocshared=20
%mem=10GB
%nosave
#b3lyp/svp scf=(tight,noincore,xqc) Test 
#IOP(5/87=12) Density=Current Pop=(MK,readradii) iop(6/33=2) iop(6/42=6)

holoCaM-CaMKII.loop2.water1.frame224 

   -2  1 
C         31.75644       38.11199       64.32147
C         30.87870       37.93935       65.53299
O         30.34677       38.91175       66.04579
H         32.78064       37.74065       64.54046
H         31.34250       37.52002       63.47588
H         31.81839       39.17554       64.01041
N         30.67650       36.69058       66.02726
C         29.81297       36.36141       67.16333
C         30.31946       36.97832       68.46020
O         31.44588       36.70739       68.85245
C         29.76404       34.82570       67.27286
C         28.98178       34.22626       68.40771
O         29.56565       33.48034       69.17708
O         27.65358       34.37894       68.57509
H         31.15004       35.91827       65.52980
H         28.78359       36.72078       66.95229
H         30.81196       34.45932       67.36386
H         29.35313       34.41661       66.32727
N         29.50719       37.79946       69.18982
C         29.87342       38.40044       70.46915
C         28.93464       37.99191       71.61115
O         29.19664       38.39898       72.73454
C         29.84200       39.92671       70.31606
H         28.57746       38.01610       68.81481
H         30.90306       38.09613       70.75549
H         28.81658       40.26621       70.04741
H         30.14299       40.42686       71.26129
H         30.53920       40.24651       69.51310
N         27.80591       37.24706       71.40652
C         26.82390       36.94325       72.45586
C         26.48072       35.45432       72.56646
O         25.73343       35.10890       73.47189
C         25.53699       37.77581       72.20410
C         25.10177       37.70123       70.76394
O         24.91756       36.50349       70.19162
O         25.08082       38.70999       70.07926
H         27.57777       36.95029       70.45009
H         27.21570       37.23499       73.45479
H         25.75988       38.84032       72.43360
H         24.72159       37.44914       72.88524
N         26.95834       34.51775       71.69997
C         26.63129       33.10195       71.78636
C         25.14296       32.83311       71.69346
O         24.60609       32.20607       72.59591
H         27.59008       34.80265       70.94557
H         27.02803       32.68801       72.73939
H         27.13216       32.56497       70.95104
N         24.41724       33.26105       70.62094
C         22.99584       32.96123       70.43621
C         22.74625       32.16696       69.15262
O         21.59100       31.92083       68.83247
C         22.14029       34.24977       70.50718
C         22.35098       35.27665       69.42476
N         21.59181       36.39404       69.41336
O         23.19322       35.11766       68.55827
H         24.90186       33.80908       69.89531
H         22.62150       32.32843       71.27092
H         22.31925       34.73962       71.48936
H         21.06941       33.95183       70.47168
H         20.87262       36.55319       70.13359
H         21.71818       37.09796       68.67629
N         23.77669       31.68426       68.39415
C         23.59089       30.87725       67.19762
C         23.16359       31.65708       65.96849
O         23.05845       31.04011       64.91896
H         24.74800       31.81769       68.70733
H         22.88303       30.04573       67.40818
H         24.57088       30.42298       66.93620
N         22.92279       32.99891       65.99891
C         22.57371       33.78628       64.81951
C         23.55707       34.93360       64.62083
O         24.39278       35.18047       65.47606
C         21.12521       34.32605       64.96348
C         20.11035       33.18109       64.93204
O         20.96775       35.03549       66.16717
H         22.98238       33.49440       66.89022
H         22.62827       33.16290       63.90137
H         20.86522       34.98472       64.10370
H         21.41181       35.91493       66.05143
H         20.19325       32.62687       63.97220
H         20.27829       32.47523       65.77243
H         19.07938       33.58678       65.01156
N         23.45944       35.70798       63.50202
C         24.24465       36.91200       63.24916
C         23.31643       38.08447       63.48362
O         22.21108       38.09314       62.96067
C         24.83408       36.91597       61.80233
C         25.88484       35.78526       61.64532
C         25.46476       38.29087       61.47368
C         26.43341       35.63930       60.22073
H         22.71991       35.48127       62.82055
H         25.09470       37.00125       63.96052
H         24.00239       36.74524       61.08330
H         25.42099       34.81432       61.91907
H         26.73772       35.96869       62.33488
H         26.30498       38.51807       62.16419
H         25.83018       38.33425       60.42912
H         24.71172       39.10157       61.55246
H         26.98189       36.54475       59.89111
H         27.15344       34.79465       60.18643
H         25.60722       35.43052       59.50909
N         23.72585       39.12549       64.25973
C         22.87358       40.25233       64.60962
C         23.27935       41.47963       63.82306
O         24.22255       41.41681       63.05662
C         22.97830       40.52078       66.12492
C         22.56102       39.34086       66.95241
O         23.17304       38.28602       66.88462
O         21.52265       39.45726       67.80103
H         24.69467       39.13560       64.60364
H         21.81636       40.03733       64.34217
H         22.32636       41.37578       66.39589
H         24.02645       40.78596       66.38893
N         22.55569       42.62943       63.92949
C         22.86068       43.83767       63.17311
C         24.21167       44.45038       63.55117
O         24.98615       44.69143       62.63329
C         21.73081       44.87756       63.32438
C         21.90514       46.01583       62.34473
C         22.14088       47.32383       62.79708
C         21.83002       45.77219       60.95942
C         22.30651       48.36658       61.87868
C         21.99322       46.81662       60.04688
C         22.23292       48.11314       60.50573
H         21.72441       42.62729       64.53841
H         22.87928       43.55073       62.09876
H         21.69742       45.24543       64.36888
H         20.74923       44.40106       63.11051
H         22.20386       47.53538       63.85687
H         21.64077       44.77453       60.58286
H         22.49286       49.37229       62.23099
H         21.93324       46.61931       58.98394
H         22.36037       48.92070       59.79667
N         24.59846       44.73871       64.83911
C         25.88727       45.33380       65.18013
C         27.04021       44.43820       64.75486
O         28.02610       44.94861       64.24415
C         25.79576       45.56137       66.69715
C         24.86606       44.46518       67.15763
C         23.82644       44.45030       66.03935
H         26.03477       46.33162       64.70870
H         26.76632       45.63973       67.23268
H         25.23570       46.51011       66.86283
H         25.43433       43.51215       67.14604
H         24.44246       44.58696       68.17742
H         23.36125       43.45229       66.05784
H         23.07037       45.25054       66.18105
N         26.94663       43.08659       64.86093
C         27.97644       42.15965       64.40123
C         28.20974       42.33640       62.90984
O         29.35370       42.43116       62.48775
C         27.55257       40.70664       64.70031
C         27.35504       40.47086       66.21326
C         26.89410       39.08388       66.53786
O         26.56516       38.79155       67.80483
O         26.78017       38.22943       65.67563
H         26.07219       42.69716       65.23190
H         28.92850       42.34127       64.94859
H         28.33809       40.01196       64.32829
H         26.60556       40.48368       64.16388
H         26.57865       41.15035       66.61306
H         28.30061       40.67453       66.76076
N         27.15400       42.43849       62.05869
C         27.29531       42.63425       60.63462
H         27.88716       43.55141       60.43113
H         27.78937       41.75176       60.17956
H         26.29015       42.75751       60.17400
H         26.20628       42.41611       62.44200
Ca        26.07846       35.96526       68.31855
O         27.08322       35.38547       65.32883
H         27.20362       34.43145       65.09606
H         27.60719       35.87983       64.65084

Ca 1.0



