%chk=holoCaM.loop3.water2.frame77.chk
%nprocshared=20
%mem=10GB
%nosave
#b3lyp/svp scf=(tight,noincore,xqc) Test 
#IOP(5/87=12) Density=Current Pop=(MK,readradii) iop(6/33=2) iop(6/42=6)

holoCaM.loop3.water2.frame77 

   0  1 
C         99.47103       -0.48636       30.89690
C         98.54084        0.10451       31.90959
O         98.09555       -0.61738       32.78990
H        100.36796       -0.88702       31.41370
H         98.95500       -1.31050       30.36231
H         99.79652        0.27268       30.15524
N         98.21487        1.42577       31.86537
C         97.33133        2.03649       32.84665
C         95.93869        1.46282       32.67702
O         95.36446        1.64453       31.61187
C         97.37012        3.57927       32.69090
C         96.83942        4.32550       33.88113
O         96.22498        3.67538       34.88076
O         97.08737        5.51133       33.99908
H         98.63925        2.01692       31.13330
H         97.73685        1.79654       33.85416
H         96.89428        3.92504       31.74833
H         98.43996        3.86431       32.63719
N         95.33906        0.74286       33.67259
C         94.01007        0.15395       33.52013
C         92.94679        0.98408       34.21940
O         91.77689        0.66005       34.06785
C         93.96687       -1.30722       34.02507
C         94.91002       -2.25247       33.26559
C         94.65998       -3.71382       33.67764
C         95.55227       -4.68442       32.89087
N         95.23000       -6.07477       33.21692
H         95.82117        0.64260       34.57947
H         93.71943        0.15265       32.44644
H         92.92853       -1.67992       33.88106
H         94.19975       -1.34494       35.11282
H         95.96574       -1.97466       33.46722
H         94.71330       -2.15930       32.17564
H         93.59694       -3.96444       33.46624
H         94.84365       -3.84194       34.76736
H         96.62072       -4.48382       33.12736
H         95.39770       -4.52863       31.80006
H         94.23635       -6.28129       32.96163
H         95.85320       -6.71001       32.66768
H         95.37515       -6.25375       34.23686
N         93.26103        2.08227       34.96575
C         92.26680        2.95447       35.57686
C         92.33352        4.37861       35.00926
O         91.51956        5.19797       35.41201
C         92.38978        2.87284       37.11043
C         93.73152        3.28926       37.63364
O         94.43642        2.48985       38.22907
O         94.15164        4.55212       37.47293
H         94.24554        2.32762       35.11351
H         91.24200        2.59442       35.33965
H         92.20734        1.81475       37.40497
H         91.60462        3.49603       37.58794
N         93.20187        4.72225       34.00703
C         93.13623        5.98166       33.27694
C         93.52741        7.24226       34.02319
O         93.42456        8.29479       33.40802
H         93.86011        4.02371       33.63659
H         92.10148        6.10311       32.88803
H         93.81363        5.91593       32.39721
N         93.98119        7.25760       35.31102
C         94.30209        8.51771       35.99084
C         95.48603        9.26107       35.36610
O         95.70300       10.41136       35.72287
C         94.52240        8.30808       37.50625
C         95.81165        7.59762       37.85435
N         96.70976        8.17476       38.68619
O         96.04478        6.49064       37.39799
H         94.04627        6.37272       35.82531
H         93.39707        9.15903       35.89353
H         93.66349        7.73228       37.91426
H         94.51560        9.30263       38.00359
H         96.53649        9.10469       39.09442
H         97.57789        7.68174       38.93855
N         96.30891        8.66134       34.45681
C         97.42921        9.31383       33.79932
C         98.77539        8.73801       34.20547
O         99.76535        9.13049       33.60834
H         96.14579        7.68096       34.20684
H         97.45731       10.40394       34.01535
H         97.29099        9.19439       32.70304
N         98.90509        7.87943       35.26198
C        100.19648        7.43388       35.78429
C        100.21373        5.94014       36.03637
O         99.24642        5.41385       36.55861
C        100.45006        8.13186       37.13233
C        100.60395        9.62351       36.97401
C         99.68070       10.50327       37.56073
C        101.68612       10.14822       36.24597
C         99.83692       11.88541       37.41950
C        101.84224       11.52922       36.10914
C        100.91741       12.40343       36.69692
O        101.05881       13.73869       36.57712
H         98.06772        7.61865       35.79975
H        101.03568        7.69885       35.10614
H        101.38355        7.74266       37.59609
H         99.61166        7.89385       37.81963
H         98.83985       10.12177       38.12534
H        102.41486        9.48915       35.79061
H         99.11865       12.55445       37.87573
H        102.68395       11.91731       35.54928
H        101.79720       14.13565       36.09325
N        101.35808        5.22772       35.81987
C        101.52579        3.82930       36.21183
C        102.59631        3.72831       37.28451
O        103.65553        4.31894       37.13326
C        101.84138        2.90863       34.99495
C        103.17272        3.25041       34.27355
C        100.64961        2.93877       34.03143
C        103.51546        2.28330       33.13735
H        102.17147        5.71621       35.41912
H        100.58566        3.42754       36.65149
H        101.92348        1.86899       35.38799
H        104.00870        3.18244       34.99832
H        103.14162        4.28177       33.86402
H        100.75510        2.18728       33.22422
H         99.72132        2.68923       34.58437
H        100.54618        3.94833       33.58238
H        104.50600        2.55041       32.71298
H        103.56178        1.24048       33.51782
H        102.77534        2.34470       32.31436
N        102.40350        2.92623       38.37190
C        103.44446        2.68752       39.36919
C        104.10596        1.35468       39.09138
O        103.65187        0.64183       38.21086
C        102.83901        2.72630       40.78188
O        101.86150        1.72799       40.91272
H        101.53697        2.36966       38.42706
H        104.23685        3.46280       39.29320
H        102.37738        3.72437       40.94944
H        103.64082        2.56062       41.53541
H        101.50587        1.80077       41.83589
N        105.21757        0.95829       39.77848
C        105.84390       -0.33321       39.51045
C        104.92359       -1.47774       39.90014
O        105.11014       -2.57999       39.40212
C        107.18272       -0.46669       40.23764
H        105.62944        1.59207       40.47954
H        106.04944       -0.38666       38.41704
H        107.86335        0.35356       39.92411
H        107.03657       -0.41414       41.33733
H        107.66391       -1.43498       39.98069
N        103.91370       -1.29162       40.79943
C        102.95567       -2.32771       41.14918
C        102.10939       -2.66791       39.94227
O        102.04563       -3.83037       39.56896
C        102.05378       -1.85508       42.29677
H        103.81756       -0.37414       41.26004
H        103.49595       -3.23058       41.51394
H        102.67492       -1.62253       43.18837
H        101.48436       -0.94398       42.01640
H        101.33586       -2.65673       42.57284
N        101.43780       -1.68393       39.27453
C        100.59056       -1.94644       38.11818
C        101.38072       -2.60802       37.00446
O        101.03254       -3.71417       36.61521
C         99.93657       -0.65467       37.58119
C         98.96198       -0.00811       38.58108
C         98.20189        1.09429       37.90745
O         98.21506        2.35744       38.37306
O         97.53604        0.83979       36.91523
H        101.53790       -0.71362       39.60711
H         99.77165       -2.63562       38.42618
H         99.35878       -0.94192       36.67394
H        100.70616        0.09000       37.27778
H         99.50071        0.38288       39.46998
H         98.22193       -0.76562       38.91644
N        102.45452       -1.98560       36.44510
C        103.24635       -2.55552       35.37533
H        104.29566       -2.67122       35.71831
H        102.86970       -3.54814       35.05130
H        103.22632       -1.87043       34.50203
H        102.73170       -1.05953       36.78957
Ca        97.06559        3.67036       36.95892
O         96.09566        4.70567       40.05834
H         95.15859        5.01748       39.99049
H         96.58098        5.47158       40.45561
O         99.17080        5.18723       39.33408
H         99.73629        5.93388       39.65406
H         99.16651        4.53587       40.07896

Ca 1.0



