%chk=holoCaM.loop3.water2.frame40.chk
%nprocshared=20
%mem=10GB
%nosave
#b3lyp/svp scf=(tight,noincore,xqc) Test 
#IOP(5/87=12) Density=Current Pop=(MK,readradii) iop(6/33=2) iop(6/42=6)

holoCaM.loop3.water2.frame40 

   0  1 
C          5.72856       -8.75044       16.37838
C          4.86797       -8.41502       17.56092
O          3.97370       -9.17679       17.89864
H          6.78512       -8.84275       16.70700
H          5.40988       -9.70274       15.90621
H          5.65782       -7.93711       15.62352
N          5.07850       -7.24565       18.21881
C          4.29716       -6.77662       19.35257
C          3.46430       -5.61664       18.85121
O          3.71491       -4.46138       19.16497
C          5.26171       -6.43062       20.49447
C          4.55470       -5.86403       21.67826
O          3.67852       -6.49364       22.24832
O          4.90035       -4.64261       22.11135
H          5.81480       -6.61578       17.86108
H          3.59255       -7.55469       19.72680
H          6.01619       -5.69497       20.14200
H          5.79467       -7.34564       20.81457
N          2.46003       -5.90566       17.98547
C          1.67622       -4.92167       17.25425
C          0.93719       -3.98330       18.18293
O          1.06765       -2.78233       17.98577
C          0.77039       -5.62850       16.21661
C          1.67172       -6.36582       15.19426
C          0.91659       -7.08924       14.07965
C          1.87617       -7.92404       13.20072
N          2.89620       -7.11121       12.53092
H          2.27549       -6.90486       17.81283
H          2.37013       -4.28943       16.65446
H          0.16743       -4.86803       15.67354
H          0.07680       -6.33788       16.72014
H          2.28976       -7.12886       15.70655
H          2.35124       -5.61621       14.73766
H          0.36128       -6.35435       13.45827
H          0.18582       -7.79133       14.53651
H          1.27635       -8.45712       12.43186
H          2.37985       -8.69361       13.82911
H          2.44497       -6.37159       11.94628
H          3.54608       -6.67626       13.22385
H          3.47025       -7.72980       11.91360
N          0.20412       -4.42293       19.24935
C         -0.41015       -3.47764       20.18278
C          0.64680       -2.52467       20.73788
O          0.49700       -1.32691       20.53854
C         -1.28339       -4.17936       21.25305
C         -0.59025       -5.13977       22.17018
O         -0.88410       -6.32388       22.14369
O          0.26886       -4.69025       23.09862
H          0.11481       -5.43741       19.41533
H         -1.13672       -2.85867       19.60889
H         -2.07644       -4.73744       20.70909
H         -1.78888       -3.41487       21.88270
N          1.77008       -2.97455       21.36958
C          2.85553       -2.09399       21.77886
C          2.90778       -1.96381       23.27949
O          2.79265       -0.84771       23.76642
H          1.89628       -3.98456       21.52252
H          2.73323       -1.07718       21.34658
H          3.81271       -2.48521       21.37587
N          3.05866       -3.05851       24.07898
C          3.04356       -2.99161       25.54114
C          4.33349       -3.48304       26.19154
O          4.47218       -3.30376       27.39339
C          1.82302       -3.77045       26.09736
C          1.92777       -5.31714       26.00252
N          0.74043       -5.94778       26.55957
O          2.14706       -5.73221       24.67904
H          3.14363       -3.96771       23.61752
H          2.92236       -1.92878       25.84595
H          0.90489       -3.41442       25.57997
H          1.71891       -3.51096       27.17365
H          0.59183       -5.58495       27.53009
H          0.93959       -6.96780       26.65570
N          5.28807       -4.16011       25.48934
C          6.49265       -4.71720       26.08484
C          6.42089       -6.23346       26.19159
O          7.40315       -6.82916       26.61099
H          5.14142       -4.36342       24.49685
H          6.65821       -4.32505       27.11163
H          7.36176       -4.40717       25.46587
N          5.27044       -6.91569       25.91301
C          5.07386       -8.34323       26.14254
C          4.48171       -9.02411       24.92406
O          3.55134       -8.48927       24.34597
C          4.04752       -8.52365       27.27775
C          4.53033       -8.02060       28.61257
C          3.85321       -6.97907       29.26795
C          5.64108       -8.61636       29.23298
C          4.27858       -6.54480       30.52670
C          6.06292       -8.18231       30.49193
C          5.38000       -7.14642       31.14512
O          5.76797       -6.72719       32.36618
H          4.44220       -6.38991       25.60857
H          6.01456       -8.85446       26.44148
H          3.81327       -9.60439       27.39909
H          3.10555       -8.00762       26.99094
H          2.99195       -6.50786       28.81056
H          6.17187       -9.42707       28.74983
H          3.74525       -5.74566       31.02567
H          6.91484       -8.65786       30.96134
H          6.51422       -7.12855       32.83402
N          4.87649      -10.27682       24.56625
C          4.19817      -11.08040       23.54889
C          3.64140      -12.33628       24.21225
O          4.39437      -13.07021       24.83831
C          5.16704      -11.40835       22.37906
C          5.53434      -10.09100       21.64479
C          4.52487      -12.41586       21.40185
C          6.51278      -10.27456       20.48311
H          5.65492      -10.71465       25.08347
H          3.33989      -10.52728       23.10338
H          6.08707      -11.87723       22.79324
H          6.00183       -9.38953       22.36854
H          4.60940       -9.61213       21.25075
H          4.28399      -13.36321       21.92137
H          3.59828      -11.99865       20.95643
H          5.22476      -12.69900       20.59266
H          6.07080      -10.88986       19.67415
H          6.75434       -9.28905       20.03661
H          7.45224      -10.74137       20.84306
N          2.32096      -12.65685       24.07658
C          1.71543      -13.86574       24.63284
C          1.79961      -15.01864       23.64535
O          2.31930      -14.83676       22.55912
C          0.24786      -13.57968       25.00990
O         -0.49417      -13.25860       23.86446
H          1.73224      -12.05010       23.48797
H          2.25392      -14.16186       25.55913
H          0.21105      -12.73000       25.72540
H         -0.19311      -14.47570       25.49985
H         -1.45017      -13.27532       24.12970
N          1.30573      -16.24826       23.96140
C          1.30819      -17.37533       23.03093
C          0.46449      -17.06490       21.80400
O          0.95468      -17.19930       20.69199
C          0.76982      -18.63288       23.72427
H          0.90550      -16.38711       24.90176
H          2.35352      -17.60133       22.72052
H          0.79616      -19.49671       23.02559
H          1.40684      -18.87833       24.60125
H         -0.27365      -18.48418       24.07416
N         -0.81657      -16.62079       21.94712
C         -1.70673      -16.29967       20.83209
C         -1.09653      -15.26581       19.89790
O         -1.03756      -15.51058       18.70112
C         -3.04422      -15.77813       21.37422
H         -1.17148      -16.49194       22.90782
H         -1.91992      -17.22727       20.25462
H         -2.89465      -14.85122       21.96926
H         -3.74147      -15.55961       20.53772
H         -3.51355      -16.54444       22.02813
N         -0.59242      -14.10039       20.39161
C          0.03972      -13.05598       19.57932
C          1.15152      -13.64727       18.72123
O          1.11669      -13.46755       17.51163
C          0.57280      -11.91991       20.50193
C         -0.58858      -11.13042       21.15303
C         -0.17650      -10.17618       22.25844
O          0.65442       -9.13459       22.04110
O         -0.64888      -10.32579       23.37322
H         -0.62572      -13.97741       21.41287
H         -0.70928      -12.61162       18.88537
H          1.19044      -11.20171       19.91891
H          1.21744      -12.38425       21.27530
H         -1.31393      -11.84371       21.59531
H         -1.12333      -10.56589       20.35879
N          2.13485      -14.40855       19.27162
C          3.19151      -15.04467       18.51010
H          4.17609      -14.71554       18.90175
H          3.11364      -16.14740       18.62474
H          3.14179      -14.80300       17.42790
H          2.11733      -14.57918       20.27859
Ca         1.12862       -7.58536       23.69548
O         -1.57029       -7.27997       25.02472
H         -1.55900       -7.12699       26.00223
H         -1.62823       -8.26340       24.93170
O          1.23307       -9.73766       25.87192
H          1.39642      -10.45422       26.53396
H          1.39116      -10.17110       24.99737

Ca 1.0



