%chk=holoCaM.loop2.water3.frame459.chk
%nprocshared=20
%mem=10GB
%nosave
#b3lyp/svp scf=(tight,noincore,xqc) Test 
#IOP(5/87=12) Density=Current Pop=(MK,readradii) iop(6/33=2) iop(6/42=6)

holoCaM.loop2.water3.frame459 

   -2  1 
C         20.59411       92.06808       46.29474
C         20.95105       93.19369       45.37562
O         21.79403       93.00467       44.51303
H         19.51565       91.83150       46.17695
H         21.18396       91.15909       46.04633
H         20.79844       92.35789       47.34516
N         20.33029       94.40058       45.49857
C         20.55774       95.51471       44.58919
C         21.11945       96.69963       45.36950
O         20.52044       97.10375       46.35671
C         19.22614       95.87249       43.88991
C         19.45730       96.71155       42.66046
O         19.01953       96.36575       41.57538
O         20.19853       97.82085       42.75693
H         19.63802       94.52417       46.25380
H         21.27370       95.21384       43.79382
H         18.55923       96.39698       44.60798
H         18.71176       94.94265       43.56592
N         22.26834       97.31139       44.96784
C         22.89832       98.42573       45.67518
C         21.96317       99.60915       45.87828
O         21.87619      100.10030       46.99508
C         24.13871       98.89961       44.90134
H         22.72275       96.96338       44.11052
H         23.24988       98.07496       46.67177
H         24.64821       99.72017       45.45222
H         24.86134       98.06399       44.78315
H         23.85746       99.27108       43.89203
N         21.25648      100.13223       44.83753
C         20.46837      101.36463       44.91868
C         18.96257      101.13639       44.75587
O         18.22433      102.10860       44.83934
C         21.00876      102.34394       43.84121
C         20.78112      101.77854       42.46601
O         21.78886      101.19805       41.79314
O         19.64062      101.61841       42.06494
H         21.31984       99.65255       43.93111
H         20.60595      101.83680       45.91563
H         22.09973      102.47182       44.01314
H         20.52583      103.34098       43.91147
N         18.42910       99.90217       44.51843
C         17.00320       99.66380       44.35455
C         16.42459      100.39219       43.16102
O         15.51888      101.19238       43.35226
H         19.04429       99.08259       44.47402
H         16.47369       99.97417       45.28276
H         16.82499       98.57570       44.21208
N         16.86795      100.13852       41.89317
C         16.27904      100.78633       40.71789
C         15.12051       99.99480       40.13303
O         14.37454      100.56862       39.35100
C         17.31828      101.09060       39.61453
C         17.88292       99.84844       38.95440
N         17.67531       99.61386       37.63791
O         18.53673       99.04997       39.60582
H         17.60381       99.42964       41.77484
H         15.86941      101.76982       41.04244
H         18.14569      101.70123       40.02491
H         16.81651      101.70897       38.83777
H         17.12261      100.26251       37.05979
H         18.06822       98.77343       37.19205
N         14.93294       98.67184       40.41280
C         13.83659       97.89055       39.85773
C         14.29270       96.81629       38.88527
O         13.43653       96.07777       38.42333
H         15.59870       98.18125       41.02766
H         13.11649       98.53506       39.30985
H         13.28641       97.42122       40.70097
N         15.60123       96.65579       38.52727
C         16.07584       95.63797       37.58496
C         17.54626       95.36649       37.85158
O         18.36946       96.25649       37.69472
C         15.88473       96.04991       36.09861
C         14.45548       95.85150       35.58452
O         16.29199       97.38275       35.92023
H         16.30991       97.24858       38.98325
H         15.54399       94.68077       37.77726
H         16.52344       95.37566       35.48115
H         16.29214       97.56674       34.94523
H         13.73184       96.51459       36.09032
H         14.41843       96.08146       34.49846
H         14.15824       94.78780       35.71407
N         17.93047       94.14699       38.32021
C         19.29383       93.86261       38.74786
C         20.28670       93.81720       37.58660
O         19.91193       93.55598       36.45319
C         19.35593       92.60513       39.67945
C         18.90346       91.29654       38.97138
C         18.53450       92.88122       40.95789
C         18.93912       90.06728       39.88559
H         17.19728       93.44453       38.48290
H         19.60483       94.71923       39.38366
H         20.40856       92.46678       40.00437
H         19.58196       91.10858       38.11256
H         17.86879       91.37675       38.58123
H         18.65104       92.07165       41.70493
H         18.90437       93.80230       41.44737
H         17.45435       93.00603       40.73467
H         18.19119       90.14758       40.70142
H         18.68720       89.15632       39.30292
H         19.94220       89.95048       40.33467
N         21.59957       94.07094       37.84834
C         22.70845       94.05705       36.89656
C         23.57099       92.82740       37.20071
O         23.18549       92.05915       38.05961
C         23.45102       95.41432       37.04834
C         24.58654       95.64647       36.09160
O         25.81939       95.92157       36.56007
O         24.39174       95.62893       34.88722
H         21.84600       94.28708       38.81632
H         22.33283       93.95545       35.85560
H         23.83025       95.51351       38.09032
H         22.71812       96.23193       36.87524
N         24.71200       92.53388       36.51291
C         25.49629       91.31331       36.73691
C         25.99728       91.13383       38.17676
O         25.69852       90.08449       38.73434
C         26.67401       91.24393       35.73993
C         27.55585       90.03560       35.97340
C         27.04614       88.72945       35.85729
C         28.90459       90.21463       36.32811
C         27.87394       87.62642       36.09489
C         29.72699       89.11019       36.56375
C         29.21274       87.81700       36.44770
H         25.01801       93.17300       35.76981
H         24.83786       90.44411       36.51083
H         27.27736       92.16813       35.82892
H         26.27726       91.21576       34.70228
H         26.01101       88.56304       35.58797
H         29.31992       91.20949       36.42913
H         27.47788       86.62285       36.00758
H         30.76318       89.25851       36.83888
H         29.85208       86.96337       36.63234
N         26.77276       92.03803       38.85392
C         27.29339       91.80291       40.19742
C         26.16877       91.68835       41.21128
O         26.27890       90.90610       42.14337
C         28.21935       93.00418       40.43423
C         27.56648       94.10265       39.62700
C         27.14175       93.35227       38.36553
H         27.91774       90.88326       40.25965
H         28.43835       93.23879       41.49808
H         29.18577       92.79126       39.92236
H         26.66312       94.43010       40.18226
H         28.18836       95.00313       39.43888
H         26.29403       93.90118       37.92009
H         27.98607       93.24907       37.65393
N         25.02910       92.40386       41.04690
C         23.86894       92.32233       41.92332
C         23.28963       90.91305       41.89884
O         23.04309       90.35873       42.96037
C         22.85515       93.39822       41.48683
C         23.47541       94.80526       41.70009
C         22.62572       95.95714       41.26935
O         21.54319       95.78784       40.74006
O         23.08286       97.20720       41.46349
H         24.96564       93.01717       40.22342
H         24.15573       92.56746       42.96966
H         21.91697       93.32346       42.07216
H         22.60726       93.21933       40.43086
H         24.42689       94.91191       41.14282
H         23.69478       94.93009       42.78110
N         23.13065       90.24429       40.72279
C         22.67752       88.87300       40.61013
H         21.81248       88.81964       39.92023
H         23.49141       88.25720       40.17186
H         22.38943       88.43939       41.58917
H         23.40285       90.70514       39.85524
Ca        21.00164       99.19832       41.16748
O         21.13904       98.48362       37.77575
H         20.42526       97.79984       37.78340
H         21.05603       98.92015       36.89107
O         23.81107       99.03403       39.33648
H         23.64331       99.37430       38.42258
H         24.15405       98.11538       39.19826
O         21.21725      101.28482       38.76944
H         21.62612      102.08347       38.35230
H         20.58985      101.65136       39.44067

Ca 1.0



