%chk=holoCaM.loop1.water2.frame11.chk
%nprocshared=20
%mem=10GB
%nosave
#b3lyp/svp scf=(tight,noincore,xqc) Test 
#IOP(5/87=12) Density=Current Pop=(MK,readradii) iop(6/33=2) iop(6/42=6)

holoCaM.loop1.water2.frame11 

   0  1 
C         92.32192       33.30795       23.30233
C         93.68747       33.34941       22.67634
O         94.47933       34.20900       23.02999
H         91.69932       32.49733       22.86519
H         92.39905       33.14965       24.39604
H         91.80550       34.27201       23.10306
N         94.02070       32.45276       21.71030
C         95.25234       32.51797       20.92641
C         95.25215       33.79587       20.10500
O         94.35977       33.96551       19.28546
C         95.29496       31.28950       19.99484
C         96.26104       31.36706       18.84945
O         97.59258       31.43996       19.01568
O         95.81581       31.33774       17.71276
H         93.33343       31.71451       21.49083
H         96.13770       32.49186       21.60045
H         94.29082       31.17809       19.52846
H         95.48459       30.37369       20.59599
N         96.21763       34.74422       20.28275
C         96.24173       36.00098       19.54180
C         97.51223       36.21434       18.71873
O         97.57740       37.25307       18.07541
C         95.94731       37.17494       20.50667
C         94.49444       37.07602       21.01234
C         94.04962       38.29847       21.82207
C         92.57987       38.20073       22.28501
N         91.63958       38.07854       21.16551
H         96.92837       34.59665       21.01090
H         95.43559       36.01829       18.77777
H         96.03497       38.13002       19.94541
H         96.67046       37.19778       21.35319
H         94.36582       36.16637       21.62426
H         93.84079       36.99795       20.12005
H         94.16777       39.21141       21.19917
H         94.69608       38.40069       22.72070
H         92.34030       39.12617       22.85391
H         92.44944       37.33466       22.97127
H         90.66258       38.16372       21.52765
H         91.80533       38.83443       20.46198
H         91.72449       37.14101       20.71164
N         98.52048       35.29098       18.61350
C         99.66070       35.47215       17.70667
C         99.75016       34.38901       16.62505
O        100.66100       34.48058       15.81329
C        100.98830       35.65641       18.48017
C        101.51760       34.46508       19.22105
O        102.68134       34.57932       19.88912
O        100.93379       33.39643       19.20740
H         98.46776       34.42353       19.15519
H         99.54291       36.42447       17.14735
H        100.86382       36.49347       19.20064
H        101.77529       35.95555       17.75298
N         98.84182       33.37007       16.50415
C         98.82261       32.48131       15.34401
C         99.49162       31.14407       15.59742
O        100.47594       30.83545       14.94264
H         98.04538       33.31579       17.15473
H         99.28830       32.98337       14.46915
H         97.76536       32.29819       15.04882
N         98.94819       30.27304       16.48985
C         99.45305       28.92371       16.78142
C         98.49169       28.05670       17.63879
O         98.91060       26.99354       18.07558
C        100.87440       28.98972       17.39759
C        100.95870       29.81484       18.64905
O        101.70795       30.77583       18.69249
O        100.24416       29.48782       19.73649
H         98.11167       30.61553       16.94584
H         99.55334       28.36341       15.82600
H        101.57667       29.41820       16.65210
H        101.23668       27.96170       17.61402
N         97.17350       28.37493       17.83088
C         96.19433       27.55482       18.53297
C         96.36100       27.41628       20.03896
O         95.49708       26.78591       20.62997
H         96.77352       29.18719       17.36483
H         96.16423       26.54559       18.06985
H         95.19390       28.01991       18.37932
N         97.41911       27.93134       20.73186
C         97.60085       27.74478       22.17698
C         97.82153       29.07924       22.89087
O         97.83883       30.11299       22.24202
C         98.74730       26.73630       22.43694
C         98.39497       25.33122       21.91787
O         99.96260       27.18144       21.89136
H         98.15010       28.42980       20.21875
H         96.68377       27.30703       22.62932
H         98.88920       26.62214       23.53180
H         99.93294       27.03891       20.90956
H         99.21466       24.62314       22.16064
H         97.46317       24.96724       22.40248
H         98.24394       25.33410       20.81763
N         97.93196       29.11936       24.25749
C         97.97834       30.35719       25.04052
C         99.23020       30.39874       25.92878
O         99.50845       29.43156       26.62091
C         96.68528       30.46578       25.91192
C         95.41562       30.30543       25.02807
C         96.65671       31.81383       26.66184
C         94.09802       30.39164       25.80230
H         97.89075       28.23402       24.78219
H         97.97652       31.24362       24.36922
H         96.68944       29.64471       26.66337
H         95.43591       29.30276       24.54981
H         95.40688       31.07345       24.22411
H         95.79016       31.87987       27.34821
H         97.55291       31.93246       27.29754
H         96.60545       32.65601       25.94067
H         94.07938       29.64280       26.62225
H         93.94153       31.40657       26.22052
H         93.25221       30.18768       25.11258
N         99.96425       31.54928       26.02321
C        101.11003       31.76079       26.91084
C        100.73869       32.78400       27.98471
O         99.59832       33.21594       28.03567
C        102.33735       32.27984       26.10280
C        102.80507       31.29474       25.02640
O        102.08779       33.56181       25.56950
H         99.65079       32.36113       25.49033
H        101.39757       30.81614       27.42053
H        103.20612       32.38232       26.78399
H        101.78524       33.47426       24.63079
H        102.01371       31.16416       24.26686
H        103.71428       31.69443       24.52792
H        103.05333       30.31245       25.47923
N        101.67383       33.23773       28.86887
C        101.41625       34.31017       29.83130
C        101.05013       35.60353       29.11459
O        100.10732       36.26423       29.52558
C        102.64410       34.57144       30.73932
C        103.00835       33.35003       31.58855
O        103.75468       34.95818       29.96970
H        102.61832       32.83356       28.82989
H        100.57803       34.01712       30.50353
H        102.35615       35.39441       31.43871
H        104.28237       35.59507       30.51917
H        103.32407       32.49543       30.95586
H        103.84965       33.60754       32.26565
H        102.14002       33.03906       32.20690
N        101.76503       36.02401       28.03051
C        101.50172       37.27096       27.30698
C        100.11318       37.30627       26.65689
O         99.72169       38.35539       26.16725
C        102.59710       37.43495       26.22351
C        102.66286       38.81321       25.53932
C        103.80819       38.88412       24.51192
C        103.53875       38.03343       23.25575
N        104.66182       38.10772       22.32234
H        102.55102       35.43146       27.72051
H        101.58229       38.10003       28.04396
H        102.45431       36.62542       25.47802
H        103.58546       37.28276       26.71155
H        102.85750       39.56905       26.33122
H        101.71699       39.08016       25.02801
H        104.75869       38.56969       24.99658
H        103.92281       39.94117       24.18757
H        102.61830       38.41009       22.75560
H        103.37707       36.96827       23.51922
H        105.51592       37.69467       22.76318
H        104.42863       37.55908       21.46301
H        104.84787       39.10044       22.05191
N         99.33081       36.19195       26.58152
C         98.04967       36.13189       25.88900
C         96.90837       35.73623       26.82190
O         95.77872       35.67690       26.35501
C         98.16818       35.08026       24.77725
C         99.34202       35.35395       23.82230
C         99.47714       34.20602       22.88185
O         99.69665       33.08069       23.29076
O         99.26444       34.37831       21.58382
H         99.68341       35.31062       26.96020
H         97.79725       37.11600       25.43770
H         97.22067       35.01466       24.19562
H         98.33136       34.10246       25.27008
H        100.30194       35.45712       24.36755
H         99.14529       36.29336       23.26175
N         97.11772       35.43643       28.13739
C         96.07001       35.03680       29.05294
H         95.07066       35.00960       28.57254
H         96.29956       34.02448       29.44838
H         96.03733       35.75126       29.90211
H         98.06148       35.47408       28.53214
Ca        98.68270       32.44826       20.64120
O        101.13115       29.63408       22.52607
H        101.81303       29.22938       21.93341
H        101.19819       29.11677       23.36816
O        102.72331       32.40469       21.84797
H        102.67598       32.07755       20.91545
H        103.66720       32.26066       22.10821

Ca 1.0



