%chk=holoCaM-CaMKII.loop3.water1.frame398.chk
%nprocshared=20
%mem=10GB
%nosave
#b3lyp/svp scf=(tight,noincore,xqc) Test 
#IOP(5/87=12) Density=Current Pop=(MK,readradii) iop(6/33=2) iop(6/42=6)

holoCaM-CaMKII.loop3.water1.frame398 

   0  1 
C         39.08239       91.60220       72.37240
C         38.29677       92.16351       73.52190
O         37.26323       91.60727       73.86580
H         40.09825       91.32016       72.72277
H         38.58985       90.69596       71.95834
H         39.17276       92.36151       71.56852
N         38.75531       93.26479       74.18228
C         38.10210       93.83918       75.35256
C         37.76548       95.31103       75.08294
O         38.65886       96.06082       74.71432
C         39.04554       93.66795       76.56917
C         38.31450       93.92074       77.85539
O         38.18548       92.96311       78.78594
O         37.72979       94.96706       78.02791
H         39.64010       93.69089       73.86493
H         37.16931       93.27539       75.58284
H         39.92935       94.33309       76.46947
H         39.40169       92.61459       76.60264
N         36.49453       95.78970       75.25027
C         36.06815       97.14769       74.89911
C         36.12907       98.15743       76.04315
O         35.98054       99.33870       75.76212
C         34.70468       97.11160       74.15461
C         33.46357       96.53930       74.89036
C         32.84674       97.44067       75.97334
C         31.51652       96.83548       76.47347
N         30.82974       97.73064       77.40520
H         35.78468       95.13259       75.56772
H         36.80059       97.54394       74.16122
H         34.86523       96.45463       73.27169
H         34.45409       98.12253       73.76687
H         33.66530       95.53215       75.30131
H         32.68261       96.41301       74.10856
H         32.63298       98.43406       75.52370
H         33.54233       97.57153       76.82747
H         31.70739       95.85724       76.96932
H         30.84250       96.65469       75.60554
H         30.61829       98.64157       76.93604
H         29.92460       97.29223       77.69511
H         31.41618       97.89437       78.25444
N         36.37015       97.79411       77.33537
C         36.54528       98.74683       78.43496
C         37.89308       98.58806       79.15742
O         38.13713       99.34579       80.08668
C         35.33904       98.66340       79.39458
C         35.03577       97.27731       79.89483
O         33.96173       96.75886       79.63559
O         35.92602       96.60352       80.63781
H         36.40833       96.79730       77.56004
H         36.54849       99.79101       78.05036
H         34.44743       99.02859       78.83891
H         35.49312       99.34956       80.25621
N         38.84077       97.68462       78.76328
C         40.17238       97.59082       79.35240
C         40.24849       97.15595       80.80794
O         41.35864       97.15093       81.32288
H         38.66628       97.09726       77.94202
H         40.66084       98.58522       79.26013
H         40.77701       96.86574       78.76407
N         39.16009       96.79925       81.55267
C         39.26853       96.50512       82.98179
C         40.11521       95.27925       83.31089
O         40.45571       95.13765       84.47751
C         37.88529       96.38247       83.66847
C         37.04550       95.20421       83.22745
N         35.86804       94.95297       83.84217
O         37.41966       94.46877       82.32808
H         38.23421       96.81065       81.11772
H         39.76959       97.38734       83.44237
H         37.30505       97.31592       83.50315
H         38.05478       96.28196       84.76332
H         35.53569       95.55351       84.61044
H         35.29523       94.14476       83.56113
N         40.46694       94.34093       82.37758
C         41.31531       93.20029       82.70732
C         40.62391       91.85169       82.62537
O         41.27277       90.87944       82.98783
H         40.13647       94.43259       81.40638
H         41.69052       93.28348       83.74947
H         42.20678       93.20729       82.04482
N         39.34229       91.68195       82.18145
C         38.66883       90.37853       82.20918
C         37.41040       90.38724       81.36785
O         36.61425       91.30150       81.50440
C         38.39805       89.91303       83.66394
C         37.47860       90.78746       84.49583
C         36.08816       90.80911       84.27400
C         38.00672       91.55199       85.55081
C         35.25073       91.58409       85.08242
C         37.16790       92.32750       86.35685
C         35.78894       92.34496       86.12894
O         34.99283       93.08630       86.92579
H         38.83634       92.49395       81.80332
H         39.34720       89.62453       81.75119
H         39.38008       89.84265       84.17340
H         37.98728       88.88039       83.65890
H         35.64110       90.21097       83.49142
H         39.07019       91.54739       85.75335
H         34.18290       91.58424       84.90081
H         37.59068       92.90863       87.16646
H         34.03172       93.11185       86.81401
N         37.15103       89.36948       80.49459
C         36.00651       89.36241       79.58372
C         34.88375       88.46783       80.07910
O         35.05969       87.71279       81.02707
C         36.43227       88.95727       78.13265
C         37.00404       87.50780       78.09247
C         37.41907       89.98222       77.55147
C         37.27536       86.97549       76.68680
H         37.78369       88.55819       80.50414
H         35.56448       90.38175       79.55346
H         35.52426       88.98200       77.49018
H         36.26744       86.81551       78.55344
H         37.95084       87.43648       78.66517
H         37.66511       89.74857       76.49582
H         36.95616       90.99077       77.55598
H         38.35989       90.00856       78.14078
H         37.63082       85.92491       76.76238
H         36.34492       86.99079       76.08181
H         38.06662       87.56019       76.17725
N         33.66339       88.56597       79.48181
C         32.47729       87.80663       79.84812
C         31.84976       87.15864       78.61465
O         32.35302       87.33550       77.51113
C         31.47766       88.76270       80.52753
O         31.12224       89.80152       79.65776
H         33.55208       89.27342       78.74615
H         32.73408       87.01025       80.58043
H         31.95722       89.19534       81.43328
H         30.56887       88.20410       80.84094
H         30.39086       90.30359       80.10227
N         30.72115       86.40409       78.73428
C         30.00586       85.81548       77.60312
C         29.49303       86.89074       76.66672
O         29.72174       86.79652       75.47049
C         28.81724       84.98636       78.09855
H         30.34021       86.25224       79.68149
H         30.67965       85.12407       77.04810
H         28.10031       85.61669       78.66692
H         28.28618       84.53097       77.23449
H         29.17767       84.16859       78.75713
N         28.79498       87.95319       77.15863
C         28.30416       89.04860       76.32998
C         29.44338       89.71151       75.58420
O         29.37376       89.84160       74.36961
C         27.60112       90.09568       77.20989
H         28.63370       87.99697       78.17677
H         27.55791       88.66281       75.60095
H         27.21806       90.93184       76.58615
H         26.74323       89.63365       77.74200
H         28.29733       90.51421       77.96947
N         30.52562       90.16941       76.26871
C         31.61297       90.92090       75.65306
C         32.42542       90.09520       74.64930
O         33.25265       90.66549       73.95238
C         32.51497       91.46664       76.77819
C         33.38382       92.65033       76.37456
C         34.18538       93.16052       77.53817
O         34.89507       94.13365       77.38751
O         34.21165       92.54148       78.73042
H         30.53287       90.02804       77.28770
H         31.13848       91.78188       75.13247
H         33.13771       90.64206       77.17011
H         31.86463       91.84827       77.59674
H         32.72149       93.46437       76.01510
H         34.08915       92.37052       75.56429
N         32.25900       88.74724       74.52672
C         33.00382       87.94553       73.58028
H         34.09189       88.01996       73.78732
H         32.69966       86.87931       73.66983
H         32.79190       88.28442       72.54439
H         31.59504       88.25562       75.13063
Ca        36.14471       93.10873       79.70601
O         33.68063       93.52057       81.55747
H         33.41881       92.56673       81.51245
H         33.11506       93.90100       82.27542

Ca 1.0



