%chk=holoCaM-CaMKII.loop4.water2.frame227.chk
%nprocshared=20
%mem=10GB
%nosave
#b3lyp/svp scf=(tight,noincore,xqc) Test 
#IOP(5/87=12) Density=Current Pop=(MK,readradii) iop(6/33=2) iop(6/42=6)

holoCaM-CaMKII.loop4.water2.frame227 

   -3  1 
C         52.88025       47.19034       31.25144
C         54.11978       47.31690       30.41994
O         55.04849       47.98462       30.84565
H         52.11571       46.56323       30.74613
H         53.13531       46.72405       32.22547
H         52.45107       48.19886       31.42601
N         54.21444       46.68374       29.22045
C         55.39156       46.77682       28.36815
C         55.53652       48.20538       27.85012
O         54.60325       48.70612       27.23793
C         55.25875       45.76182       27.21842
C         56.50266       45.62421       26.40035
O         57.61183       46.32731       26.68484
O         56.52192       44.82101       25.48932
H         53.42386       46.09425       28.91469
H         56.28204       46.47334       28.96502
H         54.40530       46.03406       26.56062
H         55.05887       44.75772       27.65583
N         56.68156       48.91748       28.06934
C         56.84462       50.33338       27.72578
C         57.70224       50.54889       26.47337
O         57.61806       51.63924       25.92532
C         57.40139       51.13233       28.95689
C         56.62316       50.86112       30.26991
C         57.49739       52.65028       28.70659
C         55.13726       51.22289       30.22858
H         57.44600       48.43433       28.54236
H         55.84478       50.73910       27.45845
H         58.43847       50.78088       29.14860
H         57.10284       51.42798       31.09853
H         56.72011       49.78974       30.52965
H         58.20384       52.88124       27.88600
H         56.50627       53.08226       28.45979
H         57.89999       53.16077       29.60771
H         54.68086       50.99658       31.21535
H         54.99294       52.30229       30.02211
H         54.60652       50.62402       29.46133
N         58.50256       49.58248       25.92473
C         59.21454       49.77861       24.65452
C         58.70358       48.84851       23.56022
O         59.17536       48.95839       22.43664
C         60.75489       49.71199       24.80964
C         61.38164       48.42017       25.33872
O         60.91232       47.28124       24.67539
O         61.13277       48.25908       26.69957
H         58.58707       48.67198       26.39472
H         59.01643       50.79925       24.26154
H         61.08893       50.53891       25.47295
H         61.20404       49.90390       23.81152
N         57.70316       47.95351       23.78690
C         57.10740       47.13965       22.74696
C         58.05713       46.14315       22.12739
O         58.17542       46.12422       20.91062
H         57.28148       47.87688       24.72037
H         56.67063       47.79871       21.96490
H         56.27223       46.55816       23.19541
N         58.69626       45.22327       22.90272
C         59.39850       44.06103       22.35957
C         58.68825       42.76972       22.78800
O         59.20808       41.69148       22.53989
C         60.90158       44.08705       22.72355
C         61.24971       43.94089       24.17775
O         62.42278       43.94891       24.51415
O         60.30120       43.78013       25.11273
H         58.60171       45.29829       23.92677
H         59.37615       44.07561       21.24784
H         61.33300       45.04212       22.35195
H         61.40353       43.25617       22.18081
N         57.46124       42.81487       23.39095
C         56.65881       41.65824       23.74540
C         56.81296       41.21807       25.18797
O         56.02630       40.37599       25.60037
H         56.98126       43.71649       23.47396
H         56.81955       40.81704       23.03871
H         55.59432       41.96244       23.63027
N         57.79223       41.69630       26.01181
C         57.94504       41.26884       27.40170
C         58.06591       42.44708       28.35411
O         58.13519       43.59087       27.92380
C         59.18650       40.36100       27.54231
C         59.00931       39.04628       26.77050
C         60.15161       38.09889       27.02823
N         61.41431       38.41261       26.65836
O         59.93121       37.02878       27.57611
H         58.48845       42.34608       25.63152
H         57.05526       40.68712       27.72979
H         59.32944       40.09156       28.61039
H         60.09559       40.90278       27.20036
H         58.92696       39.23992       25.68026
H         58.06657       38.56439       27.11403
H         61.62095       39.30462       26.18694
H         62.18779       37.75555       26.83938
N         58.10678       42.20830       29.69430
C         58.27565       43.22271       30.72395
C         59.55621       42.88923       31.47561
O         59.65818       41.78160       31.98941
C         57.03826       43.21212       31.67271
C         57.15337       44.26362       32.78822
C         55.73831       43.46856       30.89159
H         58.01567       41.23209       30.01878
H         58.35592       44.23793       30.27609
H         56.96101       42.21009       32.15060
H         57.16761       45.28345       32.35597
H         56.27943       44.19666       33.47139
H         58.06669       44.10625       33.39687
H         54.86443       43.43812       31.57760
H         55.76759       44.46389       30.40050
H         55.58237       42.69172       30.11480
N         60.56430       43.80009       31.60576
C         61.78433       43.53178       32.36821
C         61.68420       44.21605       33.71394
O         60.62014       44.72579       34.02285
C         63.07783       43.88217       31.57949
C         63.50492       45.33653       31.58042
N         62.78633       46.29703       30.96640
O         64.55207       45.64261       32.13256
H         60.41157       44.74567       31.23785
H         61.85975       42.44193       32.57538
H         63.01235       43.49220       30.54158
H         63.90561       43.32429       32.07034
H         61.92971       46.06888       30.45745
H         63.11215       47.27495       30.97257
N         62.72019       44.23947       34.59307
C         62.60795       44.86827       35.90476
C         62.29820       46.36202       35.80242
O         61.42313       46.82487       36.52070
C         63.88468       44.62762       36.73459
C         63.69919       45.06656       38.17071
C         62.70870       44.46691       38.97299
C         64.50872       46.07077       38.72387
C         62.52420       44.87383       40.29556
C         64.32433       46.47394       40.05119
C         63.32852       45.87790       40.83998
O         63.13632       46.25924       42.11866
H         63.60575       43.77947       34.33213
H         61.77251       44.36662       36.43956
H         64.74023       45.15151       36.25391
H         64.11545       43.53966       36.74707
H         62.07427       43.68335       38.57855
H         65.27995       46.54343       38.12919
H         61.75397       44.40665       40.89708
H         64.95453       47.25040       40.46493
H         63.66938       46.95082       42.53540
N         62.95504       47.16985       34.91447
C         62.70741       48.61529       34.79947
C         61.27102       48.96909       34.40496
O         60.94407       50.14839       34.41312
C         63.62426       49.26705       33.73490
C         65.12709       49.10018       33.98984
C         65.91238       49.79787       32.91423
O         66.75047       50.80211       33.23308
O         65.79517       49.45826       31.74672
H         63.66305       46.73261       34.31101
H         62.91766       49.07199       35.79168
H         63.41142       50.36016       33.70371
H         63.37320       48.84098       32.73926
H         65.41736       48.03044       33.98659
H         65.38280       49.53553       34.97913
N         60.37362       48.02208       34.02003
C         59.01839       48.30607       33.56860
C         57.99735       47.77257       34.56140
O         56.95489       48.39482       34.71149
C         58.81878       47.71827       32.15650
C         59.86336       48.29097       31.18743
C         59.72326       47.76385       29.79519
O         59.70496       48.54699       28.86511
O         59.67800       46.44192       29.54843
H         60.67260       47.04833       33.98575
H         58.84984       49.40380       33.49666
H         57.79277       47.94223       31.79283
H         58.95280       46.61646       32.19799
H         60.87165       48.01547       31.54628
H         59.79421       49.40075       31.16448
N         58.24578       46.67352       35.32958
C         57.32977       46.21206       36.34731
H         56.35464       45.94181       35.89333
H         57.75235       45.31715       36.85419
H         57.18648       47.00779       37.10934
H         59.11899       46.14980       35.22307
Ca        60.39439       46.13253       26.57052
O         61.54130       43.33880       27.99618
H         61.90520       42.48980       28.35212
H         62.15365       43.57698       27.25580
O         63.28787       46.11829       27.99213
H         63.26550       46.88870       27.37232
H         64.09537       46.27200       28.54354

Ca 1.0



