%chk=holoCaM.loop2.water2.frame289.chk
%nprocshared=20
%mem=10GB
%nosave
#b3lyp/svp scf=(tight,noincore,xqc) Test 
#IOP(5/87=12) Density=Current Pop=(MK,readradii) iop(6/33=2) iop(6/42=6)

holoCaM.loop2.water2.frame289 

   -2  1 
C         19.93442       54.87934       63.19986
C         20.71746       53.87495       62.39609
O         20.60441       52.68673       62.65107
H         18.84830       54.66631       63.10030
H         20.22121       54.82950       64.26936
H         20.10805       55.91603       62.83670
N         21.51264       54.29350       61.37688
C         22.20531       53.40246       60.45111
C         23.27938       52.53859       61.10069
O         24.17860       53.08177       61.72768
C         22.87072       54.25297       59.35255
C         23.51943       53.38699       58.32407
O         24.84284       53.48367       58.09443
O         22.84883       52.57392       57.71231
H         21.56960       55.31000       61.20523
H         21.44584       52.75277       59.96151
H         23.62931       54.93031       59.80308
H         22.10601       54.87762       58.84745
N         23.29533       51.18545       60.88702
C         24.38180       50.31149       61.32315
C         25.05431       49.54551       60.17202
O         26.04638       48.88724       60.45444
C         23.84094       49.30663       62.34543
H         22.51456       50.75976       60.37071
H         25.17307       50.91291       61.82128
H         23.06062       48.66464       61.88143
H         24.65762       48.65501       62.72516
H         23.39530       49.84301       63.20943
N         24.56763       49.51494       58.88819
C         25.15319       48.66847       57.83449
C         25.45574       49.39071       56.51689
O         26.01763       48.76005       55.63148
C         24.22734       47.46159       57.58304
C         22.82001       47.85454       57.23948
O         22.58660       48.53949       56.25867
O         21.80699       47.44276       58.02390
H         23.69679       50.01657       58.66981
H         26.12600       48.25242       58.17461
H         24.19491       46.84802       58.50897
H         24.64063       46.82510       56.77117
N         25.11974       50.68876       56.30097
C         25.41017       51.41442       55.07457
C         24.74670       50.82399       53.84853
O         25.44678       50.53836       52.88732
H         24.65608       51.20635       57.04672
H         26.51106       51.46302       54.92389
H         25.04003       52.45759       55.18397
N         23.39411       50.65777       53.79351
C         22.68305       50.23204       52.58789
C         21.69950       51.30202       52.10472
O         20.94937       51.03340       51.17608
C         22.02183       48.84813       52.78450
C         20.90355       48.72780       53.78491
N         20.27937       47.53443       53.91700
O         20.55111       49.67740       54.46613
H         22.84212       50.87420       54.63492
H         23.39746       50.07577       51.75043
H         22.81197       48.11855       53.06677
H         21.60665       48.53081       51.80313
H         20.56749       46.72459       53.34981
H         19.50078       47.40822       54.57101
N         21.69007       52.56077       52.64093
C         20.82207       53.63707       52.18272
C         19.35449       53.47723       52.54053
O         18.58935       54.36120       52.18252
H         22.38544       52.81141       53.35544
H         20.93444       53.75229       51.08235
H         21.15899       54.58496       52.65575
N         18.87765       52.39822       53.22521
C         17.46765       52.19383       53.53892
C         17.26246       51.92995       55.02076
O         17.87422       51.02240       55.56721
C         16.90839       51.00718       52.72080
C         16.82953       51.35415       51.23293
O         17.70180       49.85781       52.88287
H         19.52697       51.65688       53.50452
H         16.85819       53.08107       53.25726
H         15.85745       50.80397       53.04028
H         17.35006       49.36325       53.66740
H         16.39131       50.50296       50.67109
H         16.17365       52.24023       51.08466
H         17.83534       51.57827       50.82102
N         16.33052       52.64617       55.71213
C         15.92594       52.33215       57.08128
C         15.37152       50.91463       57.10793
O         14.47673       50.60031       56.33509
C         14.87031       53.36256       57.59592
C         15.51413       54.77530       57.68384
C         14.30946       52.94443       58.97516
C         14.51206       55.89395       57.97345
H         15.83144       53.39782       55.21331
H         16.80348       52.39657       57.75959
H         14.02528       53.38422       56.87180
H         15.99546       55.03810       56.72013
H         16.30676       54.77807       58.46456
H         15.12035       52.89663       59.73327
H         13.52860       53.64690       59.32613
H         13.81712       51.95193       58.92040
H         15.04654       56.86741       57.98853
H         13.74148       55.92806       57.17420
H         14.01950       55.76829       58.95721
N         15.85130       50.02057       58.01372
C         15.39672       48.63949       58.13358
C         14.55562       48.48498       59.38769
O         14.35738       49.46570       60.08354
C         16.64077       47.72710       58.12875
C         17.26384       47.70559       56.75557
O         18.49416       48.20100       56.51810
O         16.63966       47.21816       55.82740
H         16.55275       50.34660       58.69565
H         14.72195       48.35824       57.29566
H         16.37628       46.68096       58.38750
H         17.36430       48.08861       58.89511
N         13.95294       47.29944       59.69825
C         13.07186       47.13698       60.85521
C         13.78876       47.37902       62.18278
O         13.29134       48.20463       62.93593
C         12.35687       45.76689       60.85246
C         11.46680       45.61917       62.07322
C         10.42602       46.53527       62.32554
C         11.69407       44.57832       62.99042
C          9.64459       46.41890       63.47900
C         10.90455       44.46243       64.13906
C          9.88431       45.38433       64.38563
H         14.09016       46.49745       59.06351
H         12.26213       47.89497       60.76305
H         13.10345       44.94892       60.82161
H         11.73636       45.68017       59.93402
H         10.22491       47.34931       61.64161
H         12.48754       43.86114       62.82292
H          8.85611       47.13510       63.67291
H         11.08869       43.66119       64.84273
H          9.28049       45.29823       65.27990
N         14.94090       46.73848       62.56666
C         15.60109       46.97365       63.84984
C         16.19462       48.37923       64.00060
O         16.77940       48.64497       65.04104
C         16.64237       45.85052       63.92218
C         17.00698       45.65344       62.46918
C         15.64389       45.73566       61.79082
H         14.89277       46.82969       64.69570
H         17.48635       46.01921       64.62421
H         16.11786       44.91750       64.23539
H         17.61073       46.53443       62.15470
H         17.57425       44.72598       62.23918
H         15.80977       46.01038       60.73254
H         15.09281       44.77369       61.87161
N         16.01747       49.34711       63.05676
C         16.42675       50.74007       63.20310
C         15.21201       51.64945       63.34603
O         15.30408       52.62426       64.07793
C         17.21935       51.17779       61.96875
C         18.50200       50.36082       61.78403
C         19.16944       50.68458       60.48584
O         18.69546       51.50666       59.71673
O         20.18731       49.92218       60.07325
H         15.54237       49.10746       62.18523
H         17.06804       50.88566       64.10032
H         17.48868       52.25474       62.04760
H         16.56655       51.04605       61.07533
H         18.24089       49.28170       61.73928
H         19.20056       50.51943       62.63062
N         14.04779       51.40570       62.67542
C         12.87394       52.24850       62.74676
H         12.02713       51.66177       63.16192
H         13.03339       53.14526       63.37841
H         12.60424       52.57978       61.72135
H         13.95942       50.57680       62.08621
Ca        19.73988       49.32327       57.98819
O         21.00616       53.31621       55.54269
H         21.69754       52.61040       55.55519
H         21.51083       54.15641       55.68083
O         19.64998       53.65648       57.99272
H         19.94280       54.59891       57.92683
H         18.68562       53.71793       58.19899

Ca 1.0



