%chk=holoCaM-CaMKII.loop3.water2.frame287.chk
%nprocshared=20
%mem=10GB
%nosave
#b3lyp/svp scf=(tight,noincore,xqc) Test 
#IOP(5/87=12) Density=Current Pop=(MK,readradii) iop(6/33=2) iop(6/42=6)

holoCaM-CaMKII.loop3.water2.frame287 

   0  1 
C         47.65080       32.87344       77.01158
C         47.05905       32.20853       78.22406
O         47.76770       32.00647       79.19938
H         48.50056       32.26953       76.63077
H         46.90240       32.96984       76.19536
H         48.01140       33.88954       77.27438
N         45.74647       31.85056       78.23291
C         45.09056       31.19059       79.35725
C         45.67095       29.79389       79.54699
O         45.72130       29.04927       78.57761
C         43.56255       31.14077       79.08407
C         42.73654       30.66779       80.25586
O         43.34119       30.16602       81.34073
O         41.51874       30.71307       80.20983
H         45.18097       32.07412       77.39875
H         45.23290       31.80940       80.27252
H         43.35392       30.51982       78.19010
H         43.22607       32.16950       78.85188
N         46.09891       29.35902       80.77238
C         46.64287       28.01601       80.99523
C         45.69013       26.94606       80.47565
O         46.12477       26.13355       79.67091
C         46.97850       27.74037       82.48900
C         48.11990       28.63302       83.02534
C         48.54125       28.37329       84.49291
C         49.51263       27.20421       84.77158
N         48.94488       25.87559       84.56131
H         46.00205       29.99687       81.57608
H         47.59640       27.91507       80.42847
H         47.28665       26.68482       82.55586
H         46.07009       27.86791       83.11853
H         47.74873       29.67624       82.98243
H         49.02050       28.57130       82.37749
H         47.65058       28.31924       85.15451
H         49.12707       29.26256       84.80294
H         49.81127       27.28322       85.84232
H         50.43692       27.32102       84.16290
H         49.61272       25.16751       84.94506
H         48.03309       25.78307       85.06450
H         48.84521       25.67600       83.54457
N         44.38197       26.89638       80.86352
C         43.45224       25.86065       80.40257
C         42.33233       26.39354       79.50456
O         41.48266       25.60213       79.11939
C         42.91109       25.05736       81.61010
C         42.06573       25.81913       82.59341
O         41.56360       25.17985       83.66613
O         41.82039       26.99969       82.43627
H         44.03909       27.62059       81.51053
H         43.98898       25.11683       79.77503
H         43.77702       24.63178       82.16094
H         42.29971       24.21087       81.23028
N         42.29171       27.68715       79.06662
C         41.28148       28.17279       78.12738
C         39.86438       28.19998       78.67362
O         38.95173       28.40534       77.88503
H         43.04737       28.32456       79.33472
H         41.30820       27.51454       77.23211
H         41.52754       29.19886       77.78593
N         39.58991       27.98700       79.99210
C         38.23452       27.83309       80.51969
C         37.35088       29.08326       80.43711
O         36.18634       28.97322       80.78889
C         38.29240       27.26019       81.95777
C         38.75023       28.23983       83.01360
N         38.03968       28.39530       84.15507
O         39.77839       28.87622       82.85688
H         40.37975       27.83354       80.62858
H         37.75214       27.04028       79.90515
H         38.98861       26.39247       81.94769
H         37.29338       26.86489       82.23996
H         37.18540       27.84580       84.32687
H         38.36252       29.04296       84.88794
N         37.81217       30.28540       79.97300
C         36.96855       31.46796       79.81748
C         37.46662       32.66409       80.60509
O         36.87885       33.72977       80.45582
H         38.79207       30.38014       79.68013
H         35.91673       31.27011       80.11956
H         36.96206       31.73877       78.74100
N         38.49645       32.57191       81.49190
C         38.93420       33.66787       82.34986
C         40.44319       33.64636       82.51343
O         40.99559       32.59771       82.82954
C         38.26797       33.51653       83.72978
C         36.78211       33.79102       83.66119
C         36.31695       35.08822       83.37066
C         35.84965       32.76798       83.89326
C         34.94608       35.35489       83.31599
C         34.47743       33.03601       83.83069
C         34.02161       34.33182       83.54440
O         32.70233       34.60539       83.48816
H         38.91134       31.64442       81.67144
H         38.63407       34.65804       81.93744
H         38.70371       34.24082       84.45276
H         38.47297       32.49178       84.10996
H         37.01524       35.89747       83.19513
H         36.18335       31.76238       84.11445
H         34.60224       36.35892       83.09781
H         33.76935       32.23655       84.00650
H         32.02843       33.92824       83.64282
N         41.16502       34.79652       82.40497
C         42.60353       34.87947       82.63366
C         42.84296       35.54778       83.97539
O         42.33618       36.63822       84.21194
C         43.31011       35.60905       81.45452
C         43.11637       34.77653       80.16312
C         44.81176       35.80369       81.75958
C         43.72917       35.38851       78.90237
H         40.66096       35.68007       82.22080
H         43.04738       33.86247       82.69012
H         42.85210       36.61457       81.32115
H         42.03002       34.64481       79.96916
H         43.56803       33.77774       80.32432
H         45.31743       34.82338       81.89551
H         45.31713       36.36518       80.94908
H         44.95267       36.40750       82.67973
H         43.29668       36.39222       78.70990
H         44.83242       35.46363       78.98026
H         43.50758       34.73135       78.03444
N         43.63522       34.93329       84.89936
C         43.89414       35.43289       86.24212
C         45.33457       35.90084       86.37347
O         46.06890       35.85171       85.39756
C         43.59213       34.30615       87.24757
O         42.26069       33.88055       87.12738
H         44.09762       34.05102       84.63626
H         43.24237       36.30550       86.46788
H         43.75073       34.64856       88.28990
H         44.28913       33.44886       87.09000
H         42.24995       33.15838       86.44542
N         45.79807       36.41417       87.54645
C         47.15266       36.93341       87.73200
C         48.21136       35.85468       87.57561
O         49.10665       36.01779       86.76060
C         47.28961       37.56977       89.11856
H         45.13872       36.47584       88.33926
H         47.33507       37.73970       86.98545
H         48.30944       37.99236       89.24468
H         46.55343       38.39415       89.22698
H         47.10754       36.82345       89.92098
N         48.16632       34.72367       88.33738
C         49.15210       33.64486       88.25329
C         49.27993       33.13953       86.83620
O         50.38820       32.97058       86.34580
C         48.72827       32.48011       89.15958
H         47.37335       34.61320       88.98741
H         50.14441       34.00495       88.60264
H         47.73917       32.07660       88.84947
H         49.47609       31.65927       89.10684
H         48.65794       32.82182       90.21343
N         48.15822       32.91553       86.11111
C         48.15181       32.42344       84.74406
C         48.95056       33.32691       83.82001
O         49.81627       32.83308       83.11102
C         46.70823       32.29785       84.24488
C         45.86732       31.32159       85.10414
C         44.50563       31.13674       84.52437
O         43.62714       30.27493       85.06261
O         44.19580       31.71165       83.49287
H         47.25923       33.13351       86.56462
H         48.60043       31.41252       84.71528
H         46.73834       31.91967       83.19830
H         46.22662       33.29817       84.23677
H         45.75143       31.66903       86.14862
H         46.36393       30.33058       85.11862
N         48.73126       34.66779       83.79561
C         49.47257       35.56642       82.93988
H         50.56078       35.47605       83.14295
H         49.26726       35.32985       81.87506
H         49.16304       36.61523       83.13904
H         48.03489       35.07094       84.42778
Ca        42.47284       29.54278       83.31824
O         41.22685       28.10387       85.93242
H         41.01452       27.51488       86.69898
H         41.15115       27.51709       85.13944
O         40.52873       31.07663       85.76767
H         39.56799       30.89104       85.91571
H         40.96600       30.79911       86.61170

Ca 1.0



