%chk=holoCaM-CaMKII.loop3.water2.frame145.chk
%nprocshared=20
%mem=10GB
%nosave
#b3lyp/svp scf=(tight,noincore,xqc) Test 
#IOP(5/87=12) Density=Current Pop=(MK,readradii) iop(6/33=2) iop(6/42=6)

holoCaM-CaMKII.loop3.water2.frame145 

   0  1 
C         95.51762       14.81672       81.19364
C         96.25818       15.51576       82.29722
O         95.74924       15.58159       83.40574
H         94.54965       15.32665       81.00783
H         96.10248       14.82210       80.24856
H         95.33081       13.76119       81.48082
N         97.47118       16.07892       82.05045
C         98.27865       16.77781       83.03812
C         98.28913       18.23429       82.66141
O         99.29673       18.76121       82.21042
C         99.67206       16.12025       83.09167
C        100.69845       16.83781       83.93148
O        101.74930       17.15959       83.40356
O        100.51894       17.10718       85.24401
H         97.84439       16.03710       81.08926
H         97.83134       16.71509       84.04635
H        100.07332       16.04468       82.05744
H         99.56211       15.09288       83.48112
N         97.14343       18.94852       82.82538
C         97.03283       20.35442       82.47792
C         98.00251       21.16747       83.32262
O         98.81902       21.87992       82.75544
C         95.57257       20.86899       82.59094
C         94.59709       19.98007       81.78223
C         93.23168       20.63486       81.53750
C         92.20570       19.65549       80.92483
N         92.68119       19.01074       79.69749
H         96.32577       18.45887       83.21647
H         97.30097       20.46770       81.40259
H         95.56290       21.90048       82.17398
H         95.22513       20.91717       83.64632
H         94.43941       19.02520       82.32567
H         95.04287       19.76073       80.78884
H         93.37512       21.50469       80.85906
H         92.80638       21.00539       82.49493
H         91.27216       20.22010       80.70577
H         91.95772       18.86737       81.66998
H         91.90580       18.43632       79.29419
H         92.97846       19.72535       78.99536
H         93.47295       18.36151       79.91005
N         98.00389       21.06965       84.68734
C         98.93758       21.81714       85.53681
C        100.41640       21.50147       85.26785
O        101.25027       22.32661       85.61431
C         98.58242       21.66303       87.03098
C         98.63581       20.23851       87.51515
O         97.62295       19.69493       87.92418
O         99.79518       19.56059       87.52247
H         97.30129       20.45791       85.13068
H         98.79219       22.89216       85.28547
H         97.54835       22.04659       87.17614
H         99.26285       22.28519       87.65148
N        100.81322       20.37493       84.60694
C        102.15226       20.20705       84.05146
C        103.19086       19.54356       84.94291
O        104.30069       19.36757       84.45920
H        100.09469       19.70421       84.31425
H        102.53857       21.19174       83.70822
H        102.05964       19.60111       83.12719
N        102.95610       19.17782       86.23661
C        104.02366       18.66286       87.10272
C        104.56163       17.27954       86.72455
O        105.59708       16.90721       87.25917
C        103.61309       18.70135       88.59348
C        102.42909       17.84359       88.97833
N        102.03287       17.79488       90.27040
O        101.81843       17.20119       88.13990
H        102.03332       19.37117       86.63973
H        104.87639       19.37205       87.00634
H        103.37054       19.75180       88.86242
H        104.48605       18.38704       89.20607
H        102.53332       18.33331       90.99265
H        101.22756       17.21621       90.55121
N        103.92298       16.45844       85.84526
C        104.43771       15.16029       85.42766
C        103.56843       14.00381       85.87184
O        103.85815       12.88827       85.46012
H        103.02773       16.75548       85.44906
H        105.46075       14.97063       85.81952
H        104.50058       15.16097       84.31850
N        102.53406       14.16436       86.74951
C        101.72134       13.05640       87.23921
C        100.24876       13.33955       87.03406
O         99.89545       14.47977       86.77037
C        101.97028       12.83586       88.74829
C        103.42807       12.60154       89.06060
C        103.89415       11.30475       89.32164
C        104.33477       13.67807       89.09988
C        105.24638       11.08317       89.59656
C        105.68427       13.45557       89.38444
C        106.14566       12.15442       89.62874
O        107.44636       11.92174       89.89592
H        102.34189       15.09564       87.13303
H        101.98242       12.12161       86.69611
H        101.37018       11.95547       89.06636
H        101.61788       13.70208       89.35168
H        103.21363       10.46314       89.29641
H        103.99866       14.69197       88.91985
H        105.59504       10.07574       89.78272
H        106.36898       14.29433       89.41378
H        108.10088       12.63405       89.92592
N         99.32104       12.34733       87.16399
C         97.88117       12.60503       87.14811
C         97.16726       11.81477       88.23264
O         97.69811       10.83189       88.73441
C         97.23828       12.36859       85.74739
C         97.46467       10.92371       85.23250
C         97.77088       13.40692       84.75383
C         96.79418       10.64078       83.88254
H         99.65334       11.38120       87.31136
H         97.71171       13.67224       87.41171
H         96.14324       12.54723       85.83845
H         97.04465       10.20846       85.97063
H         98.55304       10.72267       85.12957
H         97.59836       14.43109       85.14661
H         98.85372       13.25077       84.57967
H         97.24088       13.34585       83.78467
H         95.70116       10.82732       83.94374
H         97.22799       11.26241       83.07234
H         96.96135        9.58036       83.60052
N         95.93349       12.21614       88.64114
C         95.10948       11.50661       89.61098
C         93.78400       11.13386       88.96409
O         93.59563       11.41435       87.79004
C         94.90699       12.38763       90.85726
O         94.21302       13.56594       90.54275
H         95.54828       13.08137       88.23607
H         95.60705       10.57001       89.94546
H         95.89581       12.61722       91.32109
H         94.33349       11.84192       91.63497
H         94.89313       14.27684       90.41676
N         92.81080       10.49561       89.66800
C         91.51505       10.13844       89.09373
C         90.75836       11.36640       88.61383
O         90.32526       11.38581       87.47051
C         90.66771        9.39133       90.12619
H         92.99894       10.25357       90.65312
H         91.67101        9.44530       88.23609
H         90.47277       10.02703       91.01581
H         89.69702        9.09314       89.67476
H         91.19847        8.47125       90.45099
N         90.58553       12.43911       89.43778
C         89.86498       13.65382       89.05885
C         90.39652       14.24095       87.76971
O         89.61295       14.51415       86.87081
C         89.98385       14.70251       90.17306
H         91.01218       12.39601       90.37638
H         88.78569       13.41933       88.92488
H         91.04808       14.97459       90.34696
H         89.42448       15.62238       89.89657
H         89.55980       14.30568       91.11907
N         91.73059       14.43758       87.60735
C         92.31764       15.01197       86.40278
C         91.92525       14.21613       85.16898
O         91.38945       14.80152       84.23782
C         93.84704       15.09158       86.53597
C         94.26964       16.03480       87.68009
C         95.75481       16.17680       87.70806
O         96.39664       15.88052       88.70197
O         96.37314       16.63326       86.60770
H         92.35019       14.14329       88.37675
H         91.94498       16.05297       86.27210
H         94.25532       15.49173       85.58352
H         94.26870       14.07700       86.68927
H         93.91154       15.66915       88.66363
H         93.83503       17.04188       87.50574
N         92.12227       12.87274       85.10452
C         91.71245       12.08579       83.96221
H         90.62124       12.20857       83.78968
H         92.27103       12.40729       83.05852
H         91.91812       11.01022       84.14980
H         92.54444       12.38601       85.90173
Ca        98.57735       16.89597       86.35199
O         99.33331       15.10926       89.93645
H         98.70392       14.86951       89.21320
H         99.36656       14.30151       90.50711
O         98.06972       17.87911       90.25737
H         97.12552       18.17151       90.19673
H         98.38136       18.22619       91.13027

Ca 1.0



