%chk=holoCaM-CaMKII.loop3.water2.frame358.chk
%nprocshared=20
%mem=10GB
%nosave
#b3lyp/svp scf=(tight,noincore,xqc) Test 
#IOP(5/87=12) Density=Current Pop=(MK,readradii) iop(6/33=2) iop(6/42=6)

holoCaM-CaMKII.loop3.water2.frame358 

   0  1 
C         48.54666       63.52040       18.49223
C         47.68221       64.17494       17.45882
O         47.98986       65.27768       17.02843
H         49.41167       64.16690       18.75164
H         47.95098       63.32615       19.40814
H         48.92855       62.55664       18.09300
N         46.58062       63.52562       16.99235
C         45.72756       64.07175       15.94619
C         45.04236       65.34230       16.44187
O         44.24551       65.28349       17.36790
C         44.71840       62.99638       15.50199
C         43.91883       63.35876       14.29080
O         43.10832       62.55958       13.85895
O         44.09669       64.53003       13.65706
H         46.37724       62.58584       17.36819
H         46.38141       64.29373       15.07149
H         44.03040       62.76036       16.34233
H         45.28343       62.07484       15.23969
N         45.38496       66.54302       15.90302
C         44.90931       67.83459       16.39798
C         43.44935       68.08509       16.02064
O         42.72649       68.69175       16.79755
C         45.83017       68.93636       15.81948
C         45.81191       70.27986       16.57013
C         46.82635       71.23785       15.91530
C         47.05684       72.51975       16.72470
N         47.98757       73.40792       16.02324
H         46.10390       66.53912       15.16348
H         45.05004       67.85941       17.50230
H         45.61850       69.07550       14.73733
H         46.87647       68.57172       15.92736
H         46.11636       70.09182       17.62430
H         44.79966       70.73718       16.56682
H         46.46580       71.49273       14.89490
H         47.81309       70.73236       15.82791
H         47.48718       72.24917       17.71572
H         46.09545       73.05163       16.89014
H         47.56442       73.72446       15.12038
H         48.18313       74.24640       16.61619
H         48.89065       72.91553       15.82983
N         42.97770       67.67853       14.80395
C         41.64445       67.97850       14.26456
C         40.79245       66.73143       14.00122
O         39.69083       66.88517       13.49090
C         41.81252       68.83567       12.98227
C         42.60561       68.16975       11.88532
O         43.00333       68.82873       10.93884
O         42.95215       66.87534       11.98875
H         43.63052       67.15576       14.20794
H         41.06881       68.59973       14.98548
H         42.36894       69.74944       13.28670
H         40.82862       69.15927       12.57949
N         41.19247       65.47953       14.37255
C         40.34733       64.29679       14.23866
C         40.11902       63.78837       12.82130
O         39.35966       62.83870       12.68743
H         42.08246       65.36718       14.87336
H         39.36365       64.51373       14.71031
H         40.80435       63.46092       14.80921
N         40.71195       64.33605       11.71976
C         40.40852       63.88242       10.35864
C         40.84588       62.44966       10.06102
O         40.44140       61.93313        9.02857
C         41.03009       64.82229        9.30172
C         42.52762       64.65520        9.19219
N         43.09879       64.30813        8.01783
O         43.23266       64.81888       10.17248
H         41.33585       65.13720       11.84734
H         39.30301       63.94912       10.25058
H         40.78310       65.87631        9.55210
H         40.57337       64.59994        8.31264
H         42.53476       64.15837        7.16875
H         44.11844       64.19450        7.96322
N         41.70924       61.77148       10.87249
C         42.15142       60.41216       10.60434
C         43.65098       60.27368       10.41363
O         44.06944       59.14330       10.19944
H         42.07014       62.22703       11.71656
H         41.66331       60.00113        9.69570
H         41.84715       59.77349       11.46197
N         44.53410       61.31923       10.50023
C         45.97973       61.10478       10.37318
C         46.82189       62.19533       11.02796
O         46.29219       63.18342       11.51916
C         46.38836       60.79396        8.90358
C         46.19368       61.90529        7.88865
C         46.91912       63.10949        7.96854
C         45.31774       61.71539        6.80293
C         46.76709       64.09802        6.98951
C         45.16900       62.70465        5.82473
C         45.89177       63.89808        5.91323
O         45.73808       64.84132        4.96172
H         44.18117       62.25786       10.73308
H         46.22809       60.20660       10.98328
H         45.81881       59.89923        8.57686
H         47.45644       60.49670        8.86628
H         47.61772       63.28750        8.77200
H         44.75432       60.79618        6.70369
H         47.33543       65.01654        7.06380
H         44.49339       62.54135        4.99433
H         46.21827       65.68144        4.98639
N         48.17202       62.01630       11.12018
C         49.09093       62.89298       11.83805
C         50.11642       63.44550       10.86201
O         50.73945       62.67030       10.14801
C         49.80539       62.07804       12.95973
C         48.77219       61.47489       13.94838
C         50.82768       62.96129       13.71064
C         49.38789       60.46144       14.91694
H         48.58183       61.16873       10.69804
H         48.54743       63.73583       12.32205
H         50.35223       61.23875       12.47316
H         47.99482       60.91825       13.38410
H         48.26741       62.28683       14.51693
H         50.31654       63.81541       14.20523
H         51.38420       62.38406       14.47385
H         51.59300       63.36295       13.01564
H         48.59195       60.03952       15.56552
H         49.85166       59.62798       14.34566
H         50.15040       60.92121       15.57509
N         50.38808       64.78072       10.83464
C         51.39332       65.38920        9.96921
C         52.55461       65.93194       10.79547
O         52.54704       65.79688       12.01065
C         50.73040       66.48943        9.12412
O         50.23690       67.50663        9.95374
H         49.88544       65.39662       11.48962
H         51.81772       64.63410        9.27165
H         49.89579       66.04305        8.53924
H         51.47059       66.91106        8.40930
H         49.97276       68.25135        9.35372
N         53.60902       66.54193       10.18179
C         54.78432       67.05355       10.88551
C         54.42366       68.10891       11.90991
O         54.84836       67.98909       13.04986
C         55.78234       67.64767        9.88697
H         53.58480       66.63010        9.15462
H         55.29828       66.21061       11.40037
H         55.33004       68.49667        9.33126
H         56.68567       68.01006       10.42384
H         56.09756       66.86951        9.16030
N         53.64591       69.17474       11.57289
C         53.25795       70.21064       12.52478
C         52.51524       69.61645       13.70554
O         52.89433       69.87831       14.83879
C         52.37524       71.26066       11.83731
H         53.30150       69.23864       10.60206
H         54.16770       70.73562       12.89286
H         51.44361       70.80393       11.43956
H         52.10094       72.06101       12.55845
H         52.93006       71.72811       10.99611
N         51.44414       68.79836       13.50807
C         50.64983       68.24570       14.60619
C         51.45750       67.33443       15.51960
O         51.00074       67.06897       16.62287
C         49.41569       67.50154       14.05505
C         48.51692       68.48790       13.29160
C         47.31921       67.87921       12.64964
O         47.07977       66.55769       12.65683
O         46.52616       68.61755       12.08772
H         51.18257       68.58480       12.53428
H         50.29611       69.10193       15.22477
H         48.82927       67.05809       14.89059
H         49.75376       66.67767       13.39210
H         49.06731       68.99671       12.47789
H         48.17021       69.25955       14.00606
N         52.66196       66.82668       15.13695
C         53.51733       66.03299       15.99264
H         54.50777       66.53161       16.06692
H         53.10778       65.92326       17.01781
H         53.65733       65.02679       15.54692
H         53.00057       67.00110       14.18743
Ca        45.07808       66.23494       11.72431
O         44.57983       67.04172        8.69474
H         45.13380       67.85048        8.56173
H         43.65027       67.37946        8.73362
O         47.26534       66.11967        9.57216
H         47.87429       65.82622       10.29303
H         47.37712       67.10252        9.53798

Ca 1.0



