%chk=holoCaM-CaMKII.loop4.water1.frame142.chk
%nprocshared=20
%mem=10GB
%nosave
#b3lyp/svp scf=(tight,noincore,xqc) Test 
#IOP(5/87=12) Density=Current Pop=(MK,readradii) iop(6/33=2) iop(6/42=6)

holoCaM-CaMKII.loop4.water1.frame142 

   -3  1 
C         26.05530       10.74644       80.77755
C         27.28799       10.77545       81.63104
O         28.38164       10.56880       81.12469
H         25.54086       11.72868       80.82902
H         26.30676       10.52094       79.72021
H         25.36753        9.95908       81.15547
N         27.16915       11.01425       82.96412
C         28.29382       11.01061       83.89220
C         28.97897        9.65634       83.87540
O         28.31685        8.65318       84.09942
C         27.78230       11.34728       85.30293
C         28.86492       11.25845       86.32742
O         28.73277       10.39012       87.34817
O         29.85773       11.96388       86.24731
H         26.22134       11.18991       83.33499
H         29.02406       11.79560       83.59784
H         26.97587       10.63616       85.58585
H         27.35921       12.37615       85.30755
N         30.31700        9.57082       83.61357
C         31.03523        8.30613       83.49389
C         32.08327        8.13449       84.59549
O         32.67200        7.06120       84.65035
C         31.65141        8.22817       82.05493
C         31.85681        6.77194       81.57582
C         32.95726        9.04438       81.95123
C         32.28031        6.68316       80.10335
H         30.83991       10.43936       83.46251
H         30.30123        7.48023       83.60613
H         30.89762        8.66707       81.36146
H         30.88307        6.24221       81.66182
H         32.60191        6.24286       82.20438
H         32.80717       10.06990       82.32448
H         33.76538        8.57891       82.55522
H         33.31017        9.11498       80.90397
H         33.28881        7.11474       79.94188
H         32.31854        5.61988       79.78891
H         31.54923        7.21483       79.45573
N         32.40326        9.13574       85.47969
C         33.46073        9.00424       86.48231
C         32.98227        9.18004       87.92346
O         33.77369        8.89127       88.80809
C         34.62752        9.95835       86.15122
C         34.22797       11.41040       86.15034
O         33.77011       11.99257       87.27452
O         34.33591       12.07346       85.13118
H         31.92679       10.04688       85.41254
H         33.87957        7.97435       86.44109
H         35.02001        9.68871       85.14520
H         35.45288        9.81366       86.88166
N         31.72521        9.61636       88.25035
C         31.22839        9.61638       89.62590
C         30.86829       10.97048       90.21764
O         30.50620       10.97025       91.38675
H         31.08162        9.89468       87.50579
H         31.98162        9.17416       90.31082
H         30.33140        8.96196       89.66947
N         30.93944       12.15074       89.53281
C         30.67764       13.45328       90.16652
C         29.42005       14.15383       89.64955
O         29.16750       15.27998       90.05504
C         31.93148       14.35294       90.07420
C         32.35754       14.76831       88.69012
O         33.43678       15.56102       88.55223
O         31.74839       14.41006       87.69597
H         31.20904       12.13117       88.53982
H         30.49753       13.32356       91.25631
H         32.78025       13.81806       90.55281
H         31.74589       15.27895       90.66122
N         28.53839       13.52177       88.82791
C         27.26823       14.09098       88.39993
C         27.35960       15.20665       87.37547
O         26.30516       15.64899       86.94205
H         28.71913       12.54732       88.57442
H         26.69393       14.43115       89.28862
H         26.68125       13.28053       87.91376
N         28.54535       15.69300       86.90749
C         28.63687       16.67825       85.83349
C         29.41648       16.04105       84.67125
O         30.73064       15.80453       85.09064
C         29.33780       17.96688       86.31370
C         28.53004       18.71714       87.37999
C         29.18570       20.01736       87.78950
N         28.58021       20.82026       88.69299
O         30.25674       20.35862       87.30650
H         29.42628       15.32728       87.28809
H         27.62753       16.94838       85.45343
H         29.45986       18.64632       85.44132
H         30.34720       17.72560       86.71559
H         28.40827       18.07565       88.27897
H         27.52514       18.95126       86.96684
H         27.67486       20.55545       89.10713
H         29.01466       21.71212       88.97358
N         29.41353       16.86059       83.44775
C         29.55310       16.04861       82.21926
C         30.33616       16.86386       81.20592
O         29.84534       17.87587       80.72480
C         28.17131       15.58520       81.64170
C         28.31222       14.90781       80.26546
C         27.46266       14.60583       82.58867
H         28.56683       17.47193       83.37587
H         30.15480       15.14029       82.43712
H         27.51962       16.47571       81.50069
H         27.31320       14.60608       79.88288
H         28.73863       15.60995       79.52032
H         28.95654       14.00696       80.32796
H         26.48690       14.28946       82.16168
H         28.09037       13.70431       82.73055
H         27.25620       15.06350       83.57470
N         31.59613       16.47362       80.86364
C         32.44347       17.18256       79.91028
C         31.96990       16.92148       78.47986
O         31.05713       16.13626       78.28590
C         33.90448       16.69409       80.11790
C         34.95222       17.47579       79.36948
N         35.12136       18.79919       79.59852
O         35.66973       16.90530       78.56202
H         31.98999       15.65740       81.34964
H         32.40127       18.26723       80.14913
H         33.96794       15.61699       79.84659
H         34.15942       16.78680       81.19647
H         34.53710       19.29558       80.28667
H         35.84380       19.32969       79.08982
N         32.56784       17.53147       77.42011
C         32.26153       17.22747       76.02163
C         32.57460       15.77031       75.70930
O         31.71454       15.07501       75.18723
C         33.08368       18.16848       75.11288
C         32.90976       17.91039       73.63317
C         31.64078       17.95471       73.02970
C         34.03636       17.64059       72.83667
C         31.50459       17.73004       71.65533
C         33.89872       17.42618       71.46335
C         32.63117       17.47028       70.86732
O         32.48543       17.26969       69.54199
H         33.29297       18.23529       77.61368
H         31.18378       17.42094       75.82462
H         34.16019       18.08117       75.38073
H         32.77085       19.21392       75.32460
H         30.75671       18.16202       73.61832
H         35.02615       17.60706       73.27506
H         30.52240       17.76385       71.20088
H         34.77897       17.22976       70.86414
H         33.24153       17.10028       68.96163
N         33.78587       15.24166       76.03960
C         34.17348       13.85070       75.80031
C         33.15612       12.89057       76.38178
O         32.70659       11.99214       75.68421
C         35.54057       13.54242       76.46123
C         36.71052       14.32188       75.84505
C         37.99816       13.97974       76.54118
O         38.70467       14.94288       77.16346
O         38.41242       12.83108       76.54491
H         34.44662       15.85963       76.52932
H         34.25419       13.65829       74.70745
H         35.75524       12.45619       76.34121
H         35.48442       13.76228       77.55198
H         36.54169       15.41405       75.93597
H         36.80095       14.06803       74.76752
N         32.76543       13.02630       77.67346
C         31.87195       12.09958       78.35736
C         30.53096       12.01184       77.64700
O         30.15406       10.92081       77.24217
C         31.71513       12.52768       79.82882
C         33.07003       12.47547       80.57104
C         32.91013       12.98495       81.96219
O         32.05591       12.38930       82.80432
O         33.51843       13.97838       82.32721
H         33.13920       13.83575       78.18929
H         32.33000       11.08435       78.35750
H         30.99777       11.84728       80.34048
H         31.30632       13.56171       79.86858
H         33.83257       13.10405       80.07155
H         33.45820       11.44105       80.58242
N         29.77605       13.12332       77.42978
C         28.51681       13.11476       76.71175
H         27.71491       13.51776       77.36413
H         28.60563       13.76173       75.81293
H         28.22335       12.09729       76.37830
H         30.11674       14.02879       77.76663
Ca        31.22256       13.75251       84.33731
O         34.39217       15.52921       85.21675
H         33.72532       15.18175       85.86021
H         35.00720       16.07607       85.76750

Ca 1.0



