%chk=holoCaM.loop4.water2.frame3.chk
%nprocshared=20
%mem=10GB
%nosave
#b3lyp/svp scf=(tight,noincore,xqc) Test 
#IOP(5/87=12) Density=Current Pop=(MK,readradii) iop(6/33=2) iop(6/42=6)

holoCaM.loop4.water2.frame3 

   -3  1 
C         52.16040       60.19868       62.50679
C         52.87944       61.36728       61.90063
O         53.19932       61.30014       60.72494
H         51.22110       60.02268       61.93737
H         52.79212       59.28918       62.44644
H         51.89167       60.38936       63.56620
N         53.10886       62.50145       62.62563
C         53.64336       63.72223       62.03507
C         54.76467       64.32351       62.88373
O         54.52837       64.64638       64.03802
C         52.46638       64.70287       61.90399
C         52.83875       65.96895       61.20395
O         53.25145       65.93797       60.05495
O         52.68258       67.14852       61.83370
H         52.77571       62.54085       63.60085
H         54.02145       63.52334       61.00802
H         52.06061       64.93693       62.91236
H         51.65872       64.21902       61.31245
N         56.00007       64.54468       62.34214
C         57.11229       65.20709       63.04029
C         57.49987       66.52496       62.33749
O         58.35399       67.23592       62.85396
C         58.31427       64.19820       63.09744
C         57.93614       62.88010       63.82713
C         59.61419       64.77482       63.69781
C         57.61903       63.03842       65.31806
H         56.16530       64.23406       61.37428
H         56.80992       65.48921       64.06955
H         58.56069       63.91572       62.04848
H         58.78172       62.16378       63.73178
H         57.06161       62.41335       63.32615
H         60.40116       63.99055       63.72466
H         60.02816       65.58548       63.06718
H         59.45346       65.16273       64.72405
H         58.49438       63.43307       65.87342
H         56.75095       63.70767       65.47764
H         57.36911       62.04515       65.74537
N         56.94650       66.90293       61.15056
C         57.41184       68.03465       60.34145
C         56.28757       68.93797       59.80595
O         56.60308       69.93063       59.16742
C         58.27938       67.50296       59.17022
C         57.57748       66.52368       58.25995
O         56.34210       66.08402       58.55928
O         58.14130       66.11256       57.25945
H         56.23212       66.29192       60.75415
H         58.07804       68.68616       60.95031
H         59.18042       66.99904       59.58276
H         58.62749       68.36988       58.56689
N         54.96694       68.68001       60.03277
C         53.87857       69.55764       59.61105
C         53.61282       69.66860       58.11148
O         52.71860       70.42868       57.76704
H         54.71616       67.87163       60.60461
H         54.06851       70.57291       60.02123
H         52.93434       69.18873       60.06771
N         54.30510       68.97407       57.15851
C         54.05443       69.14244       55.71481
C         52.68457       68.63229       55.24263
O         52.38029       68.79407       54.06883
C         55.18439       68.47220       54.89458
C         55.23764       66.97845       55.04529
O         54.26031       66.32624       55.69712
O         56.21484       66.36562       54.64870
H         55.06856       68.35331       57.46138
H         54.11580       70.23093       55.49285
H         56.14543       68.89349       55.26597
H         55.10171       68.71787       53.81493
N         51.81885       67.99532       56.08257
C         50.51881       67.48240       55.68262
C         50.60728       66.32229       54.71467
O         49.88035       66.33739       53.73542
H         52.06980       67.86350       57.07065
H         49.88700       68.30182       55.26968
H         50.00905       67.09609       56.59017
N         51.40726       65.24597       54.98468
C         51.47465       64.01171       54.18911
C         52.31888       62.97120       54.92379
O         53.49739       63.20990       55.15042
C         52.10027       64.15429       52.77097
C         51.31346       64.98414       51.74850
C         51.84834       64.79086       50.35307
N         53.11635       65.14144       50.03899
O         51.12241       64.31520       49.49232
H         51.94619       65.28216       55.86306
H         50.44230       63.61271       54.08048
H         52.13725       63.12022       52.35564
H         53.14361       64.53161       52.84157
H         51.38255       66.06319       51.98532
H         50.25062       64.65322       51.76312
H         53.74198       65.55106       50.74705
H         53.47184       65.00548       49.08113
N         51.77517       61.78101       55.30930
C         52.53898       60.73153       55.98692
C         53.59877       60.15943       55.04815
O         53.24993       59.59359       54.02124
C         51.59088       59.60190       56.49135
C         52.36772       58.43347       57.12504
C         50.59435       60.14710       57.53123
H         50.77465       61.62450       55.11795
H         53.02876       61.17253       56.88380
H         51.01895       59.19925       55.62550
H         53.05292       57.96530       56.38935
H         52.95814       58.77945       57.99900
H         51.66214       57.64324       57.45896
H         49.96996       60.96339       57.11576
H         49.90739       59.33948       57.86197
H         51.13544       60.53880       58.41996
N         54.92157       60.27236       55.35697
C         56.00317       59.74560       54.52242
C         56.22369       58.24940       54.76751
O         55.63427       57.67651       55.67166
C         57.27998       60.57849       54.83377
C         58.54307       60.26625       54.06990
N         58.58481       60.34144       52.72014
O         59.55701       59.97544       54.68564
H         55.17075       60.81028       56.20096
H         55.74499       59.91135       53.45330
H         57.49968       60.50416       55.92261
H         57.04006       61.62650       54.59199
H         57.74809       60.59887       52.17880
H         59.46034       60.13411       52.21616
N         57.11681       57.57528       53.98952
C         57.58637       56.20088       54.18856
C         58.14243       56.03031       55.58763
O         57.74053       55.10716       56.28128
C         58.67353       55.91991       53.11750
C         59.51792       54.68217       53.31585
C         58.94742       53.40710       53.45088
C         60.92012       54.81135       53.33862
C         59.76940       52.28263       53.60590
C         61.73579       53.68962       53.48031
C         61.16365       52.41908       53.61376
O         61.94288       51.32643       53.74385
H         57.53632       58.10320       53.21469
H         56.75482       55.47344       54.05501
H         59.36466       56.79205       53.08220
H         58.16906       55.86465       52.12889
H         57.87255       53.28295       53.43816
H         61.38964       55.78176       53.22883
H         59.32347       51.30225       53.71212
H         62.81221       53.81136       53.48022
H         62.90974       51.38208       53.73488
N         59.05204       56.91180       56.07211
C         59.58912       56.86522       57.42602
C         58.46721       56.93522       58.45115
O         58.40319       56.08009       59.32344
C         60.56305       58.04993       57.65699
C         61.80478       58.02446       56.74492
C         62.66130       56.81746       56.99802
O         62.88295       56.02085       56.10022
O         63.19838       56.61518       58.21645
H         59.33993       57.67424       55.44873
H         60.14926       55.91584       57.57707
H         60.90730       58.04585       58.71493
H         60.02301       59.00730       57.48451
H         62.41497       58.93087       56.94487
H         61.50612       58.05809       55.67627
N         57.55595       57.94718       58.40993
C         56.52591       58.14692       59.43041
C         55.48035       57.03562       59.48919
O         54.69177       57.04915       60.42506
C         55.80290       59.49065       59.19861
C         56.76000       60.69478       59.30421
C         56.09922       62.00823       58.99649
O         54.92844       62.06762       58.65989
O         56.82524       63.13852       59.06421
H         57.64101       58.62875       57.64229
H         57.03308       58.18678       60.42059
H         55.00567       59.61859       59.96191
H         55.32720       59.46467       58.19442
H         57.60264       60.59422       58.59252
H         57.17369       60.73327       60.33446
N         55.38357       56.06538       58.53663
C         54.39383       55.00547       58.57309
H         53.74235       55.07872       57.67711
H         54.90792       54.02163       58.56409
H         53.74965       55.05142       59.47658
H         56.01691       56.07638       57.73123
Ca        54.94719       64.94827       57.26490
O         56.85944       63.63284       55.86721
H         56.19021       63.72482       55.14181
H         57.69286       64.00235       55.48533
O         51.90425       63.62648       58.29765
H         52.62256       63.16153       58.79277
H         51.08454       63.42697       58.81490

Ca 1.0



