%chk=holoCaM.loop2.water1.frame49.chk
%nprocshared=20
%mem=10GB
%nosave
#b3lyp/svp scf=(tight,noincore,xqc) Test 
#IOP(5/87=12) Density=Current Pop=(MK,readradii) iop(6/33=2) iop(6/42=6)

holoCaM.loop2.water1.frame49 

   -2  1 
C         86.08809       93.80517        7.37520
C         85.81449       95.12888        6.72420
O         84.95135       95.19730        5.86115
H         86.87622       93.89123        8.15347
H         85.15898       93.44416        7.86667
H         86.41289       93.06752        6.61486
N         86.48124       96.24316        7.13083
C         86.15294       97.57481        6.64326
C         86.57268       97.75612        5.18422
O         87.76220       97.80656        4.90330
C         86.82840       98.60983        7.56141
C         86.37444      100.01927        7.38290
O         85.49283      100.32488        6.59588
O         86.93859      100.95794        8.15483
H         87.17427       96.14546        7.88991
H         85.05414       97.69700        6.75930
H         87.93120       98.55876        7.42876
H         86.59691       98.35476        8.61869
N         85.63314       97.81920        4.19839
C         85.94709       97.93894        2.77666
C         86.23511       99.37270        2.33847
O         86.65882       99.54522        1.20391
C         84.78895       97.38239        1.93684
H         84.66462       97.64929        4.47047
H         86.83475       97.30306        2.56304
H         84.58891       96.32731        2.22252
H         83.86436       97.97649        2.10011
H         85.04116       97.40607        0.85513
N         86.01581      100.44692        3.15426
C         86.31711      101.82825        2.77213
C         87.38120      102.44180        3.66745
O         87.78774      103.56212        3.38784
C         85.04270      102.69763        2.86524
C         84.01357      102.32138        1.84345
O         82.79571      101.87815        2.20240
O         84.27339      102.43364        0.65662
H         85.61483      100.28897        4.08762
H         86.71939      101.87345        1.73596
H         85.29274      103.76613        2.68219
H         84.62071      102.61826        3.88975
N         87.85979      101.80435        4.77408
C         88.81424      102.40458        5.68561
C         88.31098      103.73023        6.20806
O         89.02900      104.71172        6.07841
H         87.52279      100.86623        5.01961
H         89.78949      102.54537        5.16975
H         88.97756      101.71345        6.53986
N         87.07125      103.84249        6.77325
C         86.53233      105.11371        7.25734
C         86.21292      105.09786        8.75129
O         85.93362      106.15853        9.29203
C         85.32581      105.54670        6.39693
C         84.08452      104.70035        6.56917
N         82.91949      105.27390        6.95055
O         84.11711      103.50112        6.33962
H         86.48079      103.00223        6.81789
H         87.30434      105.90149        7.12320
H         85.62864      105.52130        5.32710
H         85.08007      106.60141        6.64546
H         82.85810      106.28609        7.13130
H         82.06654      104.70904        7.04999
N         86.24599      103.94775        9.48496
C         86.07406      103.88215       10.92528
C         84.82978      103.13046       11.34663
O         84.70177      102.87604       12.53588
H         86.42692      103.05656        9.02184
H         86.03259      104.89087       11.38825
H         86.96612      103.36214       11.33731
N         83.83296      102.81498       10.46639
C         82.57064      102.20150       10.88175
C         82.25032      100.95635       10.05859
O         82.99568      100.61117        9.15160
C         81.44373      103.26514       10.80500
C         81.66900      104.37271       11.84600
O         81.40237      103.82478        9.52016
H         83.92286      103.09889        9.47920
H         82.62693      101.85649       11.93762
H         80.46709      102.78637       11.03673
H         80.60245      104.41209        9.48222
H         81.68974      103.93627       12.86769
H         82.62266      104.90969       11.66121
H         80.83917      105.10945       11.80368
N         81.14071      100.21800       10.36265
C         80.73845       98.98815        9.68538
C         79.40170       99.21058        8.99695
O         78.43189       99.57735        9.64630
C         80.67088       97.81140       10.71063
C         82.10567       97.45591       11.18030
C         79.97424       96.57168       10.11110
C         82.16017       96.36204       12.24992
H         80.53877      100.53674       11.13671
H         81.47692       98.70405        8.90638
H         80.05997       98.13496       11.58285
H         82.58487       98.36209       11.60705
H         82.71069       97.12322       10.30683
H         78.93353       96.81391        9.82364
H         80.52530       96.19407        9.22787
H         79.87615       95.75865       10.85507
H         81.77564       95.39406       11.86952
H         83.21559       96.19420       12.54937
H         81.57662       96.66832       13.14290
N         79.28828       98.95545        7.66324
C         78.04271       99.04209        6.91318
C         77.28149       97.72038        7.01815
O         77.77902       96.79073        7.63554
C         78.35565       99.30665        5.42358
C         79.23177      100.49964        5.15318
O         78.85874      101.36698        4.37989
O         80.48466      100.54949        5.64407
H         80.11592       98.60681        7.16528
H         77.42631       99.88089        7.30550
H         77.40750       99.43079        4.85894
H         78.89356       98.42529        5.01024
N         76.07208       97.55313        6.41048
C         75.33597       96.28979        6.43030
C         76.10998       95.13503        5.78909
O         76.21292       94.11228        6.45016
C         73.94533       96.43647        5.77809
C         73.21296       95.10882        5.74166
C         72.94778       94.39223        6.92520
C         72.81790       94.56001        4.50946
C         72.31243       93.14778        6.87021
C         72.17604       93.31928        4.46088
C         71.92691       92.61191        5.63931
H         75.65638       98.35738        5.91603
H         75.15018       96.02177        7.49456
H         74.05633       96.83581        4.74961
H         73.34891       97.17316        6.35822
H         73.24410       94.78442        7.88934
H         73.01274       95.08804        3.58454
H         72.12333       92.59591        7.78220
H         71.87763       92.90329        3.50755
H         71.43703       91.64768        5.59827
N         76.65959       95.16885        4.53300
C         77.37890       94.04140        3.95482
C         78.64216       93.73413        4.74525
O         78.91976       92.56376        4.97003
C         77.61831       94.47494        2.50121
C         77.72000       95.97758        2.59789
C         76.63288       96.30036        3.62383
H         76.76080       93.11609        3.91191
H         78.44547       93.95372        1.97289
H         76.67760       94.27994        1.93593
H         78.71553       96.21535        3.02406
H         77.62848       96.53072        1.63911
H         76.89894       97.26215        4.09170
H         75.62953       96.35231        3.15217
N         79.42635       94.72879        5.24657
C         80.64109       94.47610        6.02071
C         80.33551       93.78597        7.34661
O         81.24896       93.23696        7.94601
C         81.37290       95.80001        6.31721
C         81.74672       96.56576        5.03586
C         82.30069       97.92824        5.31801
O         82.53229       98.35420        6.57439
O         82.53819       98.67049        4.38161
H         79.13224       95.69970        5.08796
H         81.30629       93.82339        5.41180
H         82.29398       95.60770        6.91133
H         80.68825       96.42791        6.92186
H         80.85303       96.73537        4.40762
H         82.47819       95.97828        4.44023
N         79.08378       93.82169        7.88626
C         78.70958       93.19766        9.13685
H         77.87942       92.48377        8.95015
H         79.55150       92.65083        9.60702
H         78.34811       93.97679        9.84056
H         78.34770       94.34131        7.40420
Ca        82.07787      101.35624        4.27198
O         80.51536      102.70918        7.21261
H         79.69751      102.59790        7.75853
H         80.21136      103.17751        6.39511

Ca 1.0



