%chk=holoCaM-CaMKII.loop4.water2.frame266.chk
%nprocshared=20
%mem=10GB
%nosave
#b3lyp/svp scf=(tight,noincore,xqc) Test 
#IOP(5/87=12) Density=Current Pop=(MK,readradii) iop(6/33=2) iop(6/42=6)

holoCaM-CaMKII.loop4.water2.frame266 

   -3  1 
C         51.79987      106.75505       55.61209
C         50.81430      105.80094       56.21907
O         49.62238      106.06705       56.20142
H         52.36936      106.23901       54.80904
H         51.28488      107.63531       55.17392
H         52.51054      107.10036       56.39198
N         51.25817      104.63350       56.75109
C         50.37933      103.62024       57.32029
C         49.76813      104.09828       58.63816
O         50.50271      104.48961       59.53414
C         51.17869      102.31534       57.48622
C         50.33505      101.17937       57.96583
O         50.69921      100.51007       59.07192
O         49.34356      100.83600       57.34203
H         52.27128      104.43877       56.69635
H         49.57744      103.39172       56.58146
H         52.03294      102.46566       58.18088
H         51.58388      102.02726       56.49047
N         48.41516      104.05539       58.81844
C         47.70273      104.51404       60.01155
C         47.11505      103.34145       60.81128
O         46.97680      103.51211       62.01536
C         46.58074      105.53982       59.60249
C         47.20310      106.80540       58.94937
C         45.68219      105.93536       60.79678
C         46.17525      107.81799       58.42153
H         47.85496      103.66944       58.05672
H         48.41101      105.02884       60.70037
H         45.92222      105.04335       58.85514
H         47.82323      106.49668       58.08398
H         47.86072      107.32183       59.68253
H         44.85437      106.59947       60.47865
H         45.17437      105.04802       61.22546
H         46.27289      106.44085       61.58897
H         46.70350      108.66091       57.92821
H         45.50101      107.34569       57.67913
H         45.56452      108.25480       59.23707
N         46.70700      102.15996       60.24553
C         46.00826      101.11260       61.01363
C         46.78941       99.80402       61.13904
O         46.29316       98.89521       61.79024
C         44.59683      100.89315       60.42331
C         44.59302      100.24971       59.06411
O         43.56964      100.25222       58.39898
O         45.72742       99.75237       58.53786
H         46.84460      102.01516       59.23633
H         45.84841      101.46281       62.05567
H         44.12017      101.89751       60.34861
H         43.97184      100.27321       61.09943
N         48.03158       99.65120       60.60114
C         48.89110       98.51339       60.89674
C         48.73365       97.33320       59.96643
O         48.54632       96.22499       60.44759
H         48.45835      100.45123       60.11822
H         48.78357       98.21427       61.96222
H         49.94273       98.84242       60.78132
N         48.87630       97.48791       58.62050
C         48.95979       96.37274       57.67818
C         50.18774       96.48339       56.76294
O         50.31594       95.65649       55.87018
C         47.63535       96.20966       56.89359
C         47.16152       97.37747       56.07301
O         47.82657       98.54253       56.04879
O         46.12834       97.27077       55.43273
H         48.95675       98.44490       58.25235
H         49.07155       95.40970       58.22449
H         46.83234       95.97594       57.62510
H         47.73476       95.32808       56.22338
N         51.14730       97.44976       56.92737
C         52.29783       97.59076       56.03949
C         51.93050       98.09528       54.65437
O         52.82044       98.19374       53.81925
H         51.09739       98.09977       57.72199
H         52.82472       96.61407       55.96665
H         53.00795       98.32820       56.47244
N         50.65096       98.43525       54.33501
C         50.20360       98.87414       53.02228
C         49.52644      100.23495       53.10991
O         49.25691      100.71763       54.20482
C         49.21452       97.81663       52.49141
C         49.93130       96.49471       52.16569
C         48.95473       95.37559       51.92497
N         48.22267       94.87942       52.95072
O         48.84813       94.88762       50.81037
H         49.92736       98.35802       55.05219
H         51.06440       98.97427       52.32365
H         48.70021       98.16663       51.57004
H         48.44411       97.65335       53.27652
H         50.59482       96.16983       52.99439
H         50.56136       96.66569       51.26544
H         48.33253       95.25721       53.90259
H         47.56974       94.09582       52.80345
N         49.28059      100.94029       51.97031
C         48.67448      102.26892       51.93447
C         47.53675      102.27851       50.91984
O         47.77303      101.94436       49.76479
C         49.76113      103.33657       51.61252
C         49.15612      104.73931       51.42198
C         50.78825      103.40751       52.76117
H         49.60242      100.53815       51.07422
H         48.27123      102.54362       52.92645
H         50.28509      103.06154       50.67088
H         49.95756      105.47684       51.20196
H         48.44874      104.75496       50.56711
H         48.62475      105.06588       52.33789
H         51.29501      102.43245       52.90948
H         51.56875      104.16703       52.54373
H         50.28661      103.69158       53.71430
N         46.28845      102.71051       51.27347
C         45.16552      102.82883       50.34660
C         44.84907      104.29605       50.11002
O         45.53258      105.14832       50.66469
C         43.92487      102.02266       50.82016
C         43.01050      102.72090       51.81064
N         43.41881      103.07701       53.04561
O         41.85884      102.96088       51.47718
H         46.15135      103.04615       52.22773
H         45.46253      102.39075       49.36814
H         44.24157      101.02767       51.20008
H         43.30296      101.83239       49.91746
H         44.36573      102.87382       53.36937
H         42.77138      103.54978       53.69291
N         43.85353      104.67283       49.26245
C         43.63175      106.06741       48.89925
C         43.21955      106.95496       50.06856
O         43.52335      108.13909       50.01891
C         42.60964      106.17857       47.75558
C         42.55785      107.57699       47.19215
C         43.70003      108.13681       46.59120
C         41.37794      108.33273       47.26056
C         43.66298      109.43146       46.07221
C         41.34278      109.62934       46.73848
C         42.48650      110.18245       46.14230
O         42.46666      111.43014       45.63331
H         43.29847      103.93852       48.79553
H         44.61141      106.43594       48.52215
H         41.61502      105.85333       48.13437
H         42.90032      105.49400       46.92941
H         44.62149      107.57207       46.52230
H         40.48803      107.92136       47.72033
H         44.55085      109.84915       45.61414
H         40.42685      110.20252       46.79843
H         41.67219      111.98174       45.65639
N         42.51287      106.48236       51.13657
C         42.19193      107.33363       52.28265
C         43.48245      107.76778       52.95213
O         43.69834      108.95787       53.13418
C         41.28446      106.62508       53.31622
C         39.90230      106.27359       52.74086
C         38.98599      105.75544       53.81434
O         38.66208      106.53999       54.86121
O         38.51067      104.63435       53.73260
H         42.21803      105.49701       51.14254
H         41.63276      108.23324       51.93883
H         41.13161      107.33326       54.16230
H         41.76941      105.71081       53.71856
H         40.01045      105.51367       51.93780
H         39.43243      107.18181       52.30604
N         44.40567      106.83259       53.31033
C         45.68373      107.15195       53.94853
C         46.58608      107.99575       53.05955
O         47.56467      108.52837       53.56526
C         46.43662      105.85290       54.29759
C         45.64539      104.99760       55.28880
C         46.23398      103.64437       55.47609
O         46.11886      103.06995       56.66568
O         46.54226      102.95231       54.52712
H         44.17739      105.84888       53.10561
H         45.47238      107.72080       54.88186
H         47.43622      106.07130       54.73008
H         46.57714      105.28579       53.35181
H         44.61689      104.81905       54.92980
H         45.56046      105.51090       56.26732
N         46.35418      108.13360       51.72532
C         47.19979      108.93026       50.86737
H         48.24304      108.55212       50.90356
H         46.83424      108.86798       49.81960
H         47.17064      109.99140       51.19214
H         45.56970      107.64190       51.28773
Ca        46.30348      100.86659       56.74227
O         43.74223      100.97583       55.03525
H         43.55372      100.04766       55.32058
H         43.74018      101.50606       55.87088
O         46.03128       99.57257       53.31301
H         45.05015       99.45493       53.26536
H         46.38943       98.70660       52.99747

Ca 1.0



