%chk=holoCaM.loop3.water2.frame113.chk
%nprocshared=20
%mem=10GB
%nosave
#b3lyp/svp scf=(tight,noincore,xqc) Test 
#IOP(5/87=12) Density=Current Pop=(MK,readradii) iop(6/33=2) iop(6/42=6)

holoCaM.loop3.water2.frame113 

   0  1 
C         -6.28330      115.15526       15.10242
C         -6.70989      113.87963       15.75751
O         -5.99311      113.39677       16.62211
H         -5.29529      115.00010       14.61980
H         -7.01052      115.47460       14.32729
H         -6.19696      115.95335       15.86813
N         -7.87622      113.27059       15.40528
C         -8.28851      112.00468       15.99135
C         -7.30504      110.93530       15.54110
O         -7.23240      110.69286       14.34356
C         -9.73461      111.67601       15.55225
C        -10.29403      110.50498       16.29451
O        -10.39785      110.56607       17.63155
O        -10.69060      109.51798       15.69803
H         -8.48376      113.72403       14.70466
H         -8.28602      112.12143       17.09883
H         -9.77850      111.50373       14.45388
H        -10.38987      112.54328       15.78788
N         -6.48183      110.29406       16.42608
C         -5.46958      109.32915       15.99392
C         -5.76390      107.91402       16.44243
O         -5.09296      107.02406       15.93369
C         -4.05112      109.74838       16.44533
C         -3.46933      110.98565       15.73385
C         -3.31463      110.75710       14.21916
C         -2.49995      111.86382       13.54094
N         -2.37631      111.60103       12.10587
H         -6.56017      110.51155       17.43136
H         -5.48013      109.23866       14.88980
H         -3.34211      108.91634       16.23842
H         -4.05279      109.91252       17.54543
H         -2.45901      111.15559       16.16791
H         -4.08040      111.88951       15.92619
H         -4.31527      110.70899       13.74186
H         -2.78504      109.79413       14.04930
H         -1.48317      111.89817       13.99295
H         -2.99003      112.84986       13.69664
H         -1.78392      112.34205       11.66719
H         -1.92429      110.67085       11.94536
H         -3.32117      111.61131       11.65714
N         -6.76122      107.58533       17.31507
C         -7.14337      106.18415       17.49091
C         -7.86435      105.66961       16.24300
O         -8.08687      104.47177       16.14166
C         -7.98469      105.96964       18.75830
C         -9.25654      106.74681       18.74123
O        -10.11116      106.53911       17.89951
O         -9.42389      107.71081       19.65161
H         -7.29436      108.32487       17.79518
H         -6.21485      105.59093       17.64677
H         -7.37914      106.30271       19.63050
H         -8.21800      104.89287       18.89591
N         -8.26500      106.52824       15.25659
C         -8.88659      106.12091       14.01547
C        -10.21827      105.44663       14.20571
O        -10.39304      104.35926       13.67387
H         -8.11331      107.54145       15.35622
H         -8.19160      105.46361       13.44786
H         -9.06537      107.02972       13.39937
N        -11.22313      106.04915       14.90925
C        -12.57941      105.50699       14.96092
C        -13.60350      106.50311       14.41215
O        -14.78070      106.17591       14.39437
C        -12.92841      105.00451       16.37860
C        -13.40426      106.05785       17.34808
N        -14.62018      105.93048       17.93189
O        -12.70173      107.01767       17.61851
H        -11.02407      106.93399       15.39834
H        -12.63113      104.60052       14.31965
H        -12.05465      104.45785       16.79620
H        -13.74717      104.25994       16.27259
H        -15.23129      105.12683       17.72365
H        -14.95389      106.62606       18.60873
N        -13.22761      107.72049       13.91032
C        -14.15582      108.67605       13.32886
C        -14.98237      109.46772       14.32878
O        -15.75597      110.29605       13.86813
H        -12.23097      107.96727       13.84551
H        -14.80813      108.15624       12.59414
H        -13.56442      109.43128       12.76499
N        -14.87227      109.31983       15.68374
C        -15.62887      110.13478       16.63655
C        -14.71895      110.86237       17.60487
O        -13.78806      110.25550       18.11864
C        -16.56592      109.29496       17.52408
C        -17.70997      108.63887       16.80491
C        -17.52034      107.46746       16.05970
C        -19.00179      109.17851       16.92369
C        -18.61084      106.83907       15.44814
C        -20.08628      108.55891       16.30442
C        -19.89631      107.38176       15.56882
O        -20.94069      106.76322       14.98301
H        -14.22341      108.61718       16.06431
H        -16.27387      110.88040       16.12004
H        -17.00467      109.99996       18.26737
H        -16.01091      108.54180       18.11482
H        -16.53717      107.02918       15.97813
H        -19.17103      110.08245       17.49647
H        -18.45876      105.92443       14.88956
H        -21.07346      108.99153       16.40633
H        -21.84401      107.10381       15.05703
N        -15.07857      112.09956       18.06050
C        -14.49236      112.71662       19.24603
C        -15.58849      112.88800       20.30017
O        -16.53055      113.63771       20.08360
C        -13.73045      114.03766       18.91557
C        -14.61395      115.11190       18.22040
C        -12.48805      113.69870       18.06901
C        -13.89594      116.44335       17.98974
H        -15.88180      112.57606       17.62097
H        -13.73574      112.03497       19.69027
H        -13.36543      114.45522       19.88101
H        -15.48637      115.35086       18.85643
H        -14.98392      114.73558       17.24311
H        -12.78234      113.29157       17.07866
H        -11.84433      114.58774       17.91936
H        -11.86173      112.94517       18.59258
H        -13.52682      116.85092       18.95219
H        -13.04766      116.33663       17.28543
H        -14.60644      117.17333       17.54744
N        -15.54866      112.17339       21.46216
C        -16.55151      112.29714       22.52440
C        -16.45551      113.66041       23.20542
O        -15.65315      114.47490       22.79078
C        -16.36290      111.16884       23.55843
O        -15.15299      111.31426       24.25316
H        -14.78473      111.49455       21.58781
H        -17.56489      112.15896       22.08660
H        -16.42618      110.17677       23.05024
H        -17.18823      111.16948       24.29964
H        -14.51517      110.66603       23.86347
N        -17.22781      113.96665       24.28797
C        -17.11572      115.23441       25.01032
C        -15.71643      115.43881       25.57130
O        -15.10957      116.46351       25.28814
C        -18.12873      115.28068       26.15961
H        -17.90964      113.27022       24.62005
H        -17.36001      116.07143       24.31881
H        -18.05602      116.25460       26.69018
H        -19.15918      115.17538       25.76021
H        -17.94310      114.46233       26.88775
N        -15.13918      114.49379       26.36640
C        -13.80739      114.62368       26.95677
C        -12.75572      114.90081       25.90256
O        -11.97538      115.82783       26.06358
C        -13.44016      113.33908       27.71224
H        -15.67168      113.62726       26.54554
H        -13.80483      115.45818       27.69289
H        -13.42534      112.46501       27.02516
H        -12.43650      113.44069       28.17903
H        -14.18021      113.14566       28.51740
N        -12.70711      114.14138       24.77750
C        -11.72737      114.32395       23.71099
C        -11.73947      115.74736       23.18345
O        -10.70845      116.40274       23.25119
C        -12.00484      113.30946       22.58519
C        -11.70888      111.88620       23.07744
C        -12.01842      110.86315       22.04075
O        -11.48061      110.97640       20.82165
O        -12.68000      109.87703       22.32113
H        -13.42403      113.40796       24.67521
H        -10.70664      114.12891       24.11294
H        -11.34207      113.51955       21.71607
H        -13.06044      113.39913       22.24790
H        -12.26233      111.63260       24.00465
H        -10.62261      111.82279       23.30345
N        -12.86958      116.29915       22.66912
C        -12.95381      117.66406       22.19361
H        -13.71223      118.21104       22.79195
H        -11.98712      118.20328       22.27510
H        -13.26910      117.66552       21.13221
H        -13.72109      115.73521       22.62640
Ca       -11.17082      109.07558       19.73449
O        -12.07518      106.26458       20.52841
H        -11.37625      105.74901       21.00336
H        -12.87120      106.20646       21.11353
O        -14.41958      108.45490       20.40350
H        -14.64318      109.41783       20.41866
H        -15.28055      108.00261       20.58562

Ca 1.0



