%chk=holoCaM-CaMKII.loop1.water2.frame290.chk
%nprocshared=20
%mem=10GB
%nosave
#b3lyp/svp scf=(tight,noincore,xqc) Test 
#IOP(5/87=12) Density=Current Pop=(MK,readradii) iop(6/33=2) iop(6/42=6)

holoCaM-CaMKII.loop1.water2.frame290 

   0  1 
C         60.80425       30.03533       72.51223
C         62.24773       29.70017       72.25597
O         62.71412       28.69173       72.75969
H         60.15717       29.21210       72.14444
H         60.64063       30.17265       73.60140
H         60.50305       30.97234       71.99600
N         63.00696       30.50964       71.46627
C         64.41947       30.29307       71.13960
C         65.30723       30.28492       72.39777
O         65.74831       31.33050       72.85125
C         64.81788       31.31950       70.03315
C         66.26958       31.66245       69.88433
O         67.23948       30.74495       69.83846
O         66.60069       32.83628       69.93687
H         62.53104       31.32787       71.05534
H         64.52943       29.29231       70.67120
H         64.32594       32.29401       70.24772
H         64.40594       30.95986       69.06467
N         65.57421       29.09132       73.01742
C         66.39438       28.90169       74.21876
C         67.88830       29.10692       73.98254
O         68.60478       29.30950       74.95241
C         66.17801       27.46746       74.79995
C         66.70780       26.33867       73.88039
C         66.28902       24.93507       74.34138
C         66.63051       23.84317       73.30283
N         68.06871       23.70223       73.07333
H         65.09280       28.26871       72.64888
H         66.03286       29.62609       74.98138
H         65.08469       27.33187       74.95578
H         66.67424       27.37423       75.79043
H         67.81231       26.40344       73.80519
H         66.29471       26.46844       72.87824
H         65.18337       24.92173       74.46227
H         66.75152       24.69718       75.32258
H         66.12645       24.07078       72.33723
H         66.22824       22.87250       73.66799
H         68.22750       22.91704       72.40054
H         68.46256       24.57135       72.65033
H         68.55709       23.48317       73.97100
N         68.44063       28.91399       72.74887
C         69.87654       28.92850       72.47471
C         70.31778       30.02079       71.50422
O         71.45927       29.99164       71.06426
C         70.40729       27.51171       72.11933
C         69.86734       26.61611       71.00883
O         70.42779       25.54030       70.87062
O         68.77993       26.83958       70.23257
H         67.81109       28.68081       71.98378
H         70.43669       29.18178       73.40236
H         70.28971       26.90461       73.04415
H         71.50215       27.61181       71.95196
N         69.53209       31.10344       71.25429
C         69.96127       32.26471       70.48312
C         70.18646       32.05117       68.99327
O         70.47824       33.04015       68.33455
H         68.61669       31.16675       71.72098
H         70.88693       32.68148       70.93600
H         69.17348       33.04320       70.57339
N         70.08365       30.83756       68.37250
C         70.31235       30.67891       66.93253
C         69.18001       31.24565       66.06209
O         69.31204       31.19971       64.84670
C         70.65683       29.21461       66.57678
C         69.61383       28.20669       66.95363
O         68.49093       28.26846       66.49057
O         69.93470       27.19658       67.78124
H         69.88913       29.99955       68.93507
H         71.23664       31.24055       66.66532
H         71.59837       28.94498       67.10462
H         70.85707       29.13879       65.48590
N         68.07540       31.84708       66.59489
C         67.06437       32.52818       65.79564
C         66.08664       31.63358       65.05442
O         65.20067       32.18956       64.41986
H         67.98527       31.93187       67.61354
H         67.56160       33.23105       65.09186
H         66.44239       33.14080       66.48487
N         66.13233       30.27081       65.10823
C         65.11314       29.40622       64.50356
C         64.42595       28.58270       65.58329
O         64.86242       28.62738       66.72780
C         65.72198       28.50395       63.40467
C         66.25166       29.32428       62.21765
O         66.72242       27.66497       63.92872
H         66.88725       29.82393       65.63813
H         64.31749       30.02466       64.03263
H         64.92009       27.85272       62.99506
H         67.55306       28.19894       64.02934
H         67.06468       30.01072       62.53622
H         66.64768       28.64115       61.43656
H         65.43014       29.92618       61.77357
N         63.29089       27.86529       65.30752
C         62.53407       27.16831       66.34728
C         62.29687       25.70875       65.95095
O         61.57389       25.45268       64.99784
C         61.18137       27.90018       66.62187
C         61.39204       29.43084       66.79685
C         60.50468       27.29631       67.86872
C         60.09132       30.21666       66.98172
H         62.90420       27.88771       64.35110
H         63.11034       27.19751       67.29811
H         60.51830       27.75767       65.73969
H         61.86319       29.83670       65.87597
H         62.07041       29.63575       67.65351
H         59.50295       27.73499       68.04356
H         60.35524       26.20751       67.74765
H         61.13251       27.47285       68.76874
H         60.31863       31.30323       67.01238
H         59.40112       30.02541       66.13220
H         59.58914       29.95469       67.93407
N         62.88591       24.70055       66.65200
C         62.68122       23.27339       66.40644
C         61.30184       22.84014       66.89785
O         60.56572       23.65911       67.41982
C         63.77142       22.42242       67.13297
C         65.20451       22.78138       66.69981
O         63.62851       22.48415       68.53157
H         63.53264       24.96758       67.38565
H         62.78744       23.07666       65.31712
H         63.64027       21.35816       66.84832
H         64.12478       23.27028       68.86879
H         65.92817       22.11117       67.21114
H         65.31843       22.65812       65.60293
H         65.45984       23.82589       66.97024
N         60.90244       21.54207       66.79680
C         59.64998       21.03653       67.36329
C         59.62833       21.17231       68.88581
O         58.68448       21.74449       69.41250
C         59.41732       19.55687       66.95775
C         59.14169       19.42874       65.45705
O         60.52614       18.75656       67.28808
H         61.52698       20.88167       66.31244
H         58.79258       21.61760       66.95379
H         58.49678       19.18134       67.46699
H         60.31732       18.29099       68.13872
H         59.99879       19.79453       64.85459
H         58.95403       18.36534       65.19838
H         58.23771       20.01634       65.18661
N         60.63438       20.66253       69.65206
C         60.66122       20.70002       71.11896
C         60.53376       22.11824       71.64476
O         59.66261       22.35706       72.46997
C         61.95387       20.03359       71.64220
C         61.91642       18.51338       71.39608
C         63.24382       17.83177       71.74056
C         63.12392       16.31094       71.55207
N         64.41163       15.64824       71.74995
H         61.43121       20.23265       69.15923
H         59.80041       20.12122       71.52617
H         62.04984       20.19031       72.74002
H         62.83280       20.50178       71.14618
H         61.69811       18.29723       70.32975
H         61.09793       18.07948       72.01334
H         63.53333       18.04927       72.79182
H         64.02926       18.23065       71.06168
H         62.76008       16.08456       70.52493
H         62.38295       15.90969       72.28004
H         64.28228       14.61552       71.64688
H         65.09185       15.97438       71.02514
H         64.78477       15.85230       72.70492
N         61.32790       23.11935       71.17498
C         61.19081       24.51753       71.58816
C         59.75288       24.98186       71.40785
O         59.14769       25.41952       72.37730
C         62.16038       25.41381       70.77993
C         63.62850       25.17165       71.17609
C         64.58010       25.95245       70.30837
O         65.36796       26.89711       70.82156
O         64.68193       25.71125       69.12648
H         62.01764       22.87745       70.45088
H         61.43869       24.61770       72.66923
H         61.93624       26.48468       70.98191
H         62.00775       25.22404       69.69416
H         63.89225       24.09756       71.09505
H         63.75672       25.47623       72.23790
N         59.12480       24.86947       70.20927
C         57.73859       25.23715       70.02088
H         57.09312       24.63876       70.70011
H         57.59775       26.31799       70.22953
H         57.43143       25.02876       68.97368
H         59.63731       24.47967       69.41349
Ca        67.42798       28.55040       69.69968
O         67.48732       24.46589       69.22445
H         67.34441       23.59429       69.67076
H         68.43637       24.44915       68.94230
O         67.52646       25.42163       66.21957
H         67.28498       24.86832       65.43502
H         66.83965       26.13457       66.24062

Ca 1.0



