%chk=holoCaM-CaMKII.loop2.water2.frame9.chk
%nprocshared=20
%mem=10GB
%nosave
#b3lyp/svp scf=(tight,noincore,xqc) Test 
#IOP(5/87=12) Density=Current Pop=(MK,readradii) iop(6/33=2) iop(6/42=6)

holoCaM-CaMKII.loop2.water2.frame9 

   -2  1 
C         64.01867       83.44179        3.54964
C         65.17208       83.56419        2.59557
O         66.31599       83.45406        3.01191
H         63.35803       82.60840        3.22504
H         64.37259       83.22730        4.58017
H         63.43188       84.38362        3.55467
N         64.92824       83.75141        1.27089
C         65.98018       83.78424        0.25746
C         66.82361       85.04918        0.32675
O         66.41238       86.03233        0.92881
C         65.32194       83.64780       -1.12872
C         66.22727       83.74900       -2.32511
O         65.99168       84.64560       -3.11859
O         67.25102       82.89739       -2.60277
H         63.94051       83.79152        0.97155
H         66.62868       82.90966        0.41647
H         64.56804       84.46526       -1.21370
H         64.76918       82.69431       -1.18534
N         68.04050       85.06984       -0.29320
C         68.90962       86.23914       -0.34622
C         69.71840       86.35624       -1.65267
O         70.39178       87.36616       -1.79838
C         69.85323       86.21365        0.86102
H         68.38900       84.17213       -0.64500
H         68.28437       87.15646       -0.26813
H         70.49794       85.30927        0.83327
H         70.49757       87.11850        0.87769
H         69.26122       86.19822        1.80179
N         69.75281       85.37806       -2.61686
C         70.58828       85.44960       -3.82133
C         69.82399       85.19800       -5.12654
O         70.42678       85.33715       -6.18271
C         71.74833       84.44320       -3.67767
C         71.27576       83.03407       -3.43628
O         71.60299       82.40326       -2.29239
O         70.58899       82.46086       -4.26417
H         69.24227       84.50411       -2.47507
H         71.03891       86.46129       -3.91340
H         72.36868       84.75450       -2.80983
H         72.39340       84.46751       -4.58233
N         68.51863       84.81492       -5.14585
C         67.75277       84.58103       -6.35764
C         68.30926       83.45795       -7.20205
O         68.61744       83.70121       -8.36008
H         68.02423       84.69512       -4.26335
H         67.70742       85.52108       -6.94991
H         66.71029       84.30780       -6.08050
N         68.42005       82.19127       -6.70268
C         68.84538       81.04833       -7.51716
C         67.73885       80.00562       -7.68634
O         67.93128       79.08794       -8.47271
C         70.14831       80.41026       -6.97273
C         70.07377       79.81030       -5.58494
N         71.14327       79.15755       -5.07699
O         69.06295       79.90798       -4.91057
H         68.15963       82.03976       -5.71776
H         69.07719       81.39761       -8.54685
H         70.95433       81.17548       -6.97498
H         70.44973       79.60089       -7.67308
H         72.01028       79.05859       -5.62434
H         71.09895       78.73861       -4.13692
N         66.56551       80.06745       -6.99093
C         65.46319       79.13316       -7.16195
C         65.30804       78.16991       -5.99797
O         64.31520       77.45788       -5.97471
H         66.42326       80.81046       -6.30024
H         65.58472       78.51541       -8.07804
H         64.53495       79.73006       -7.29265
N         66.29285       78.00562       -5.06544
C         66.27789       76.96440       -4.03924
C         66.61923       77.50363       -2.65984
O         67.39498       78.44180       -2.54895
C         67.31784       75.87610       -4.40539
C         66.89959       75.11659       -5.66578
O         68.58811       76.44026       -4.62501
H         67.14939       78.55796       -5.15620
H         65.28225       76.47152       -3.98041
H         67.37478       75.11868       -3.58904
H         68.95274       76.70983       -3.74317
H         65.91044       74.63467       -5.51003
H         66.83673       75.79775       -6.54030
H         67.64395       74.32398       -5.88991
N         66.13766       76.87313       -1.54746
C         66.55249       77.22940       -0.19313
C         67.97281       76.74674        0.03608
O         68.19722       75.54344        0.05726
C         65.58347       76.62003        0.87499
C         64.17291       77.23947        0.70765
C         66.11013       76.84668        2.30801
C         63.12000       76.66874        1.65795
H         65.47513       76.09298       -1.67415
H         66.51089       78.33341       -0.07994
H         65.51898       75.51983        0.71585
H         63.81355       77.05707       -0.32680
H         64.22704       78.33545        0.87102
H         66.22630       77.92935        2.52367
H         65.44896       76.38827        3.06786
H         67.07896       76.33556        2.44404
H         62.13702       77.13126        1.43089
H         63.03982       75.56915        1.53064
H         63.35403       76.90684        2.71505
N         68.98379       77.63765        0.23801
C         70.33360       77.21800        0.59212
C         70.36592       76.77296        2.06048
O         69.37436       76.96717        2.74413
C         71.33358       78.37275        0.36436
C         71.34819       78.88902       -1.06148
O         72.31789       78.64295       -1.76160
O         70.38794       79.71691       -1.55374
H         68.78082       78.64073        0.14969
H         70.63200       76.37755       -0.07522
H         72.34402       77.96972        0.59347
H         71.14533       79.22476        1.05165
N         71.45187       76.17251        2.63093
C         71.49954       75.82163        4.05677
C         71.45584       77.05910        4.96548
O         70.60983       77.06937        5.84622
C         72.70880       74.92972        4.40586
C         72.67702       74.48573        5.86157
C         73.73944       74.80636        6.72510
C         71.58584       73.75127        6.37355
C         73.71002       74.40640        8.06649
C         71.55867       73.36042        7.71667
C         72.62004       73.68702        8.56222
H         72.26010       75.94285        2.03050
H         70.60342       75.19743        4.27174
H         73.65137       75.46976        4.18139
H         72.67941       74.02053        3.76726
H         74.59157       75.36605        6.36247
H         70.75016       73.48169        5.74154
H         74.53257       74.65578        8.72414
H         70.71375       72.80350        8.10304
H         72.59790       73.38174        9.60115
N         72.27908       78.15529        4.81288
C         72.20272       79.36765        5.64120
C         70.88692       80.13877        5.52753
O         70.77071       81.17761        6.16490
C         73.39375       80.20939        5.15801
C         73.52043       79.78788        3.71218
C         73.32593       78.28416        3.82028
H         72.34420       79.13090        6.71776
H         73.31555       81.30458        5.33318
H         74.31219       79.84283        5.66910
H         72.65738       80.21139        3.14797
H         74.46221       80.08950        3.20686
H         73.07581       77.91631        2.81603
H         74.24229       77.78323        4.20562
N         69.83923       79.67638        4.79870
C         68.53426       80.30621        4.71580
C         67.52079       79.45863        5.46780
O         66.78131       80.00990        6.27051
C         68.17465       80.47924        3.23842
C         69.18510       81.42104        2.55947
C         68.92350       81.55872        1.10072
O         69.65193       82.26204        0.42018
O         67.90111       80.89764        0.53000
H         69.94405       78.81605        4.26005
H         68.52853       81.31650        5.18449
H         67.15151       80.90381        3.14391
H         68.18751       79.48642        2.73494
H         70.21618       81.02481        2.67121
H         69.13278       82.42601        3.03215
N         67.47709       78.10319        5.32711
C         66.58910       77.27332        6.11083
H         65.53330       77.50489        5.86377
H         66.78611       76.20077        5.89505
H         66.76902       77.44557        7.19455
H         68.12336       77.62844        4.68904
Ca        68.58703       81.09945       -2.03011
O         65.97693       80.90363       -3.92507
H         65.35014       81.61339       -4.21465
H         65.49732       80.42112       -3.20990
O         64.70452       80.21050       -0.77891
H         65.59275       80.51776       -0.47055
H         64.06525       80.65660       -0.16910

Ca 1.0



