%chk=holoCaM.loop4.water2.frame220.chk
%nprocshared=20
%mem=10GB
%nosave
#b3lyp/svp scf=(tight,noincore,xqc) Test 
#IOP(5/87=12) Density=Current Pop=(MK,readradii) iop(6/33=2) iop(6/42=6)

holoCaM.loop4.water2.frame220 

   -3  1 
C         43.90862       69.22161        3.29616
C         45.00867       68.80229        4.22732
O         44.76649       67.93742        5.05472
H         43.04827       69.62027        3.87080
H         44.25502       69.98922        2.57356
H         43.57339       68.33202        2.71788
N         46.26601       69.32163        4.10130
C         47.41269       68.80036        4.83534
C         48.29729       69.90742        5.40191
O         48.75907       70.74375        4.63970
C         48.23022       67.94754        3.85231
C         49.36972       67.25378        4.53279
O         50.51988       67.47817        4.19447
O         49.12060       66.36870        5.51296
H         46.44245       70.00981        3.35380
H         47.08013       68.12671        5.65221
H         48.60559       68.58818        3.02439
H         47.57338       67.16654        3.41192
N         48.64837       69.90496        6.72286
C         49.64523       70.81480        7.30310
C         50.85461       70.04785        7.84103
O         51.76092       70.69527        8.35414
C         49.01928       71.69137        8.43164
C         48.59761       70.84264        9.66365
C         47.86280       72.52541        7.85721
C         47.98813       71.65173       10.80845
H         48.23459       69.18781        7.33200
H         50.03261       71.50521        6.52220
H         49.79721       72.41064        8.77620
H         49.49089       70.32203       10.07116
H         47.87295       70.07112        9.36680
H         47.48185       73.24791        8.60659
H         48.22299       73.12112        6.99117
H         47.02865       71.87261        7.52511
H         47.03273       72.12287       10.50007
H         47.76198       70.97118       11.65687
H         48.69788       72.43174       11.15478
N         50.93393       68.68463        7.79245
C         52.01187       67.91239        8.39417
C         52.78887       67.13088        7.34170
O         53.96448       67.41180        7.15832
C         51.48337       67.03594        9.56590
C         50.28715       66.10893        9.36363
O         49.52484       66.10788        8.24450
O         49.97460       65.37402       10.28443
H         50.18942       68.15733        7.32588
H         52.75603       68.59849        8.86126
H         51.19526       67.72177       10.39351
H         52.34217       66.43061        9.93093
N         52.20824       66.13520        6.62047
C         52.87540       65.37118        5.58479
C         52.96094       63.91290        5.96233
O         54.05622       63.36904        5.92253
H         51.23358       65.90324        6.79076
H         53.89769       65.75637        5.37696
H         52.28601       65.46865        4.64922
N         51.85127       63.21173        6.34291
C         51.88347       61.78352        6.65707
C         50.92587       60.96718        5.79275
O         51.00055       59.74822        5.85986
C         51.65725       61.53648        8.16870
C         50.33250       61.97161        8.73101
O         49.49133       62.50172        8.03279
O         50.07293       61.77247       10.03642
H         50.95805       63.71711        6.42348
H         52.89692       61.38441        6.43625
H         52.44995       62.07203        8.73293
H         51.76599       60.44946        8.37074
N         50.00177       61.54665        4.96832
C         49.12279       60.79011        4.09332
C         47.67275       60.85911        4.51662
O         46.84666       60.35861        3.76603
H         49.89229       62.56835        4.93896
H         49.39957       59.71417        4.05212
H         49.23370       61.19819        3.06555
N         47.28437       61.38006        5.72240
C         45.90453       61.35167        6.18835
C         45.43815       62.76959        6.61438
O         46.04101       63.14270        7.83251
C         45.75121       60.33650        7.34633
C         46.23044       58.92715        6.94815
C         46.02677       57.89612        8.03237
N         46.43994       56.62343        7.83159
O         45.49260       58.19638        9.09058
H         47.99172       61.73935        6.36924
H         45.24393       61.00618        5.36316
H         44.67790       60.28960        7.63435
H         46.34266       60.66783        8.22804
H         47.31714       58.96668        6.71717
H         45.68450       58.59076        6.04076
H         46.89852       56.35323        6.94886
H         46.30702       55.90703        8.56077
N         43.97181       62.78906        6.77498
C         43.44653       64.13650        7.08168
C         43.05239       64.14615        8.54876
O         42.11758       63.45060        8.92294
C         42.22296       64.52066        6.18291
C         41.63008       65.88222        6.58947
C         42.59394       64.58912        4.68858
H         43.51320       62.36114        5.94140
H         44.23418       64.90544        6.90588
H         41.42905       63.75069        6.31044
H         42.38495       66.68854        6.47495
H         40.74954       66.12362        5.95680
H         41.27670       65.86557        7.63885
H         42.96307       63.62256        4.29506
H         41.69520       64.85185        4.08974
H         43.37290       65.36048        4.51374
N         43.74726       64.90060        9.44357
C         43.41101       64.97423       10.86413
C         42.16965       65.84000       11.07680
O         41.66675       66.42007       10.13024
C         44.64300       65.53776       11.62112
C         44.53841       65.60036       13.12344
N         44.31317       64.48421       13.85546
O         44.67787       66.67385       13.68926
H         44.57793       65.40625        9.10445
H         43.22477       63.94340       11.23758
H         44.87917       66.54859       11.22850
H         45.49808       64.87713       11.40039
H         44.19914       63.56673       13.40188
H         44.24551       64.54065       14.88266
N         41.62949       65.97275       12.31732
C         40.52383       66.86470       12.66610
C         40.90874       68.32141       12.42305
O         40.18034       69.02797       11.74003
C         40.19708       66.64530       14.15894
C         39.06921       67.48607       14.69652
C         37.75830       67.33336       14.21583
C         39.32208       68.40773       15.72522
C         36.71536       68.08504       14.76895
C         38.28160       69.15878       16.27285
C         36.97203       68.99547       15.80111
O         35.95573       69.70092       16.33649
H         42.03654       65.40560       13.07121
H         39.62442       66.60399       12.06434
H         41.12007       66.84131       14.74789
H         39.93058       65.57747       14.31707
H         37.54013       66.62197       13.42900
H         40.32522       68.53916       16.11131
H         35.70502       67.95193       14.40305
H         38.49500       69.85931       17.07012
H         36.09236       70.32492       17.06399
N         42.06384       68.82355       12.95187
C         42.53380       70.20660       12.79711
C         42.83804       70.60146       11.34847
O         43.20357       71.74862       11.12904
C         43.81998       70.41730       13.64001
C         43.60103       70.24717       15.15531
C         42.71290       71.32417       15.71150
O         41.66261       71.03559       16.26159
O         43.08331       72.61618       15.61943
H         42.63604       68.17521       13.50805
H         41.74557       70.89617       13.17061
H         44.23428       71.43629       13.47200
H         44.58692       69.68662       13.29901
H         44.58283       70.31681       15.66957
H         43.17771       69.24602       15.38141
N         42.69386       69.73092       10.31239
C         42.96049       70.05054        8.91829
C         41.64303       70.12067        8.17167
O         41.38283       71.12173        7.51862
C         43.88429       68.97456        8.31724
C         45.19792       68.86469        9.10490
C         46.11274       67.78396        8.59773
O         47.26937       67.54712        9.24251
O         45.81556       67.10005        7.63174
H         42.38278       68.77579       10.49857
H         43.46862       71.03704        8.81640
H         44.10633       69.23391        7.25946
H         43.37188       67.98852        8.34426
H         44.97501       68.62873       10.16528
H         45.71506       69.84277        9.06616
N         40.73354       69.11210        8.26854
C         39.43951       69.15982        7.62968
H         38.88336       70.06108        7.96582
H         39.56175       69.17685        6.52786
H         38.85076       68.26071        7.91432
H         40.94274       68.29236        8.84647
Ca        47.81628       64.64158        7.74456
O         46.66909       64.96596        4.91037
H         46.55657       64.59975        3.99826
H         45.88243       65.55038        5.04393
O         47.49889       63.98589       10.42444
H         47.74303       63.04909       10.22581
H         47.89110       64.17115       11.31353

Ca 1.0



