%chk=holoCaM.loop3.water2.frame131.chk
%nprocshared=20
%mem=10GB
%nosave
#b3lyp/svp scf=(tight,noincore,xqc) Test 
#IOP(5/87=12) Density=Current Pop=(MK,readradii) iop(6/33=2) iop(6/42=6)

holoCaM.loop3.water2.frame131 

   0  1 
C         11.63920      102.46005      106.51358
C         10.96129      102.29554      107.83618
O         11.64598      102.16123      108.83888
H         12.74356      102.43685      106.63815
H         11.33927      101.62748      105.84383
H         11.34672      103.42859      106.05957
N          9.60126      102.29887      107.91822
C          8.90216      102.09840      109.18001
C          9.20217      100.69367      109.67677
O          8.84762       99.73723      109.00045
C          7.38959      102.34532      108.99209
C          6.61862      102.31880      110.27751
O          7.22524      102.02697      111.44037
O          5.42934      102.58401      110.27118
H          9.05647      102.45274      107.05525
H          9.27469      102.85992      109.90238
H          6.95921      101.60425      108.28430
H          7.25391      103.35785      108.55571
N          9.93981      100.50195      110.80800
C         10.43847       99.18359      111.19790
C          9.36924       98.29324      111.81328
O          9.63879       97.11107      111.97312
C         11.71288       99.32186      112.06368
C         12.82326       99.97218      111.21090
C         14.14252      100.20324      111.94648
C         15.16332      100.81520      110.96806
N         16.43546      101.10110      111.62565
H         10.27044      101.33435      111.32047
H         10.76136       98.65611      110.27099
H         12.06630       98.31751      112.38368
H         11.49480       99.92798      112.97040
H         12.48005      100.95854      110.84541
H         13.01740       99.31645      110.33237
H         14.53370       99.24031      112.33948
H         13.97063      100.90074      112.79501
H         14.75638      101.76109      110.54362
H         15.33819      100.10773      110.12569
H         16.84744      100.22113      112.01118
H         17.09566      101.50584      110.92219
H         16.29171      101.79690      112.39275
N          8.12220       98.75925      112.11704
C          7.00724       97.88902      112.49041
C          5.88955       97.93654      111.44598
O          4.98327       97.11920      111.52994
C          6.49835       98.23216      113.90154
C          6.04298       99.65859      114.02452
O          6.67309      100.49117      114.87379
O          5.10737      100.06942      113.35908
H          7.93849       99.76542      112.03937
H          7.34833       96.83111      112.51274
H          7.32810       98.06083      114.62078
H          5.66167       97.55451      114.17975
N          5.89530       98.84017      110.42200
C          4.94375       98.84401      109.32986
C          3.50841       99.00316      109.76039
O          2.70923       98.14587      109.41137
H          6.63225       99.54912      110.36156
H          5.05813       97.90052      108.75335
H          5.19003       99.68495      108.64371
N          3.09044      100.10061      110.45579
C          1.67690      100.36695      110.72364
C          1.18635      101.59962      109.96759
O         -0.00300      101.87912      110.02451
C          1.39433      100.45642      112.24068
C          1.91888      101.70448      112.91743
N          1.06851      102.54291      113.55819
O          3.11340      101.95416      112.90719
H          3.79370      100.78962      110.75262
H          1.06777       99.51743      110.34776
H          1.81944       99.55872      112.73974
H          0.29228      100.41872      112.38271
H          0.05637      102.35089      113.59177
H          1.42103      103.38555      114.03479
N          2.03955      102.38654      109.24524
C          1.63449      103.56798      108.50547
C          2.16469      104.83185      109.14576
O          2.01790      105.88808      108.54770
H          3.04595      102.17822      109.22175
H          0.53021      103.66295      108.43830
H          2.03222      103.47250      107.47179
N          2.72904      104.81350      110.38980
C          3.19180      106.00005      111.08989
C          4.66495      105.78574      111.52690
O          4.59277      104.71218      112.42618
C          2.32140      106.25254      112.35990
C          0.86357      106.50725      112.09674
C          0.02202      105.48722      111.62069
C          0.32059      107.77162      112.37450
C         -1.33613      105.73540      111.41235
C         -1.03571      108.01834      112.16336
C         -1.86931      107.00071      111.67937
O         -3.18137      107.22668      111.47328
H          2.79326      103.92416      110.90362
H          3.12273      106.89717      110.43527
H          2.74321      107.13243      112.89126
H          2.37909      105.39657      113.06360
H          0.40589      104.49538      111.42482
H          0.94708      108.56910      112.75573
H         -1.97452      104.94054      111.04843
H         -1.43577      109.00009      112.38075
H         -3.58448      108.08961      111.64473
N          5.13077      107.01708      112.18731
C          6.55715      107.19690      112.52513
C          6.60395      108.40317      113.45701
O          6.10252      109.46291      113.10148
C          7.48874      107.39543      111.26622
C          7.79721      106.02096      110.60125
C          8.82009      108.09023      111.65240
C          8.70200      106.09332      109.36501
H          4.84687      107.83934      111.60214
H          6.93934      106.32761      113.09841
H          6.98521      108.07342      110.54213
H          6.85859      105.53415      110.28106
H          8.29354      105.35779      111.34557
H          9.44961      108.29280      110.76364
H          8.63850      109.09394      112.08932
H          9.39252      107.47705      112.37725
H          8.24088      106.72950      108.58239
H          9.71400      106.47302      109.61113
H          8.84993      105.07587      108.95292
N          7.24519      108.31472      114.65397
C          7.36425      109.41085      115.60428
C          8.77148      109.96551      115.56968
O          9.58596      109.47157      114.80529
C          7.00596      108.89828      117.01500
O          7.91156      107.90724      117.43441
H          7.74161      107.44271      114.87527
H          6.67401      110.24125      115.33836
H          5.96003      108.51258      117.02664
H          7.03940      109.72364      117.75509
H          7.47097      107.02657      117.31230
N          9.14204      111.00048      116.36632
C         10.51125      111.50153      116.41559
C         11.45512      110.40189      116.86907
O         12.47958      110.19507      116.23713
C         10.61230      112.69119      117.37110
H          8.43084      111.42821      116.98182
H         10.81790      111.86774      115.40877
H         10.32099      112.40053      118.40236
H         11.65486      113.07650      117.38335
H          9.94503      113.50810      117.02211
N         11.12392      109.62073      117.93819
C         11.95251      108.53059      118.44539
C         12.35370      107.56611      117.34463
O         13.54285      107.34531      117.15799
C         11.19549      107.78012      119.55280
H         10.21826      109.79826      118.39890
H         12.87751      108.95843      118.88971
H         11.81905      106.95902      119.96466
H         10.94041      108.47703      120.37954
H         10.24920      107.34575      119.16178
N         11.41661      106.96653      116.56534
C         11.74672      106.03283      115.49045
C         12.61049      106.69641      114.43041
O         13.72641      106.24406      114.21900
C         10.45224      105.48962      114.87281
C          9.73496      104.55338      115.85788
C          8.38206      104.26187      115.33333
O          8.18160      103.23106      114.50424
O          7.50670      105.10220      115.45162
H         10.42605      107.19239      116.74872
H         12.31633      105.17227      115.90833
H         10.66066      104.91326      113.94373
H          9.80615      106.35228      114.59619
H          9.61382      105.00030      116.86745
H         10.32298      103.61623      115.95742
N         12.16020      107.77017      113.72683
C         12.93643      108.45992      112.71712
H         13.94138      108.01130      112.57496
H         12.39347      108.42646      111.74927
H         13.06510      109.52113      113.01811
H         11.21893      108.12221      113.91065
Ca         6.38071      103.72305      113.31464
O          4.58685      102.12828      116.02424
H          4.76619      101.42436      116.69700
H          3.83852      102.65038      116.40678
O          3.95458      105.08482      115.18453
H          4.87256      104.93101      115.51929
H          3.78525      106.04465      115.35481

Ca 1.0



