%chk=holoCaM.loop2.water2.frame58.chk
%nprocshared=20
%mem=10GB
%nosave
#b3lyp/svp scf=(tight,noincore,xqc) Test 
#IOP(5/87=12) Density=Current Pop=(MK,readradii) iop(6/33=2) iop(6/42=6)

holoCaM.loop2.water2.frame58 

   -2  1 
C         75.01029       26.83272       22.78867
C         74.19944       27.97883       23.33340
O         73.17312       28.30833       22.75828
H         75.91815       26.64596       23.40265
H         74.39800       25.90620       22.79232
H         75.33286       27.05280       21.75022
N         74.59606       28.61791       24.46774
C         73.84707       29.70382       25.10262
C         73.77966       30.94924       24.22533
O         74.65162       31.15920       23.39351
C         74.46596       29.97078       26.48560
C         73.92632       31.12256       27.28810
O         74.74110       31.94551       27.67188
O         72.62402       31.28950       27.64787
H         75.45658       28.27882       24.92691
H         72.81819       29.35426       25.28040
H         75.55596       30.15117       26.33949
H         74.37136       29.05090       27.09256
N         72.69316       31.77291       24.31929
C         72.45480       32.94005       23.47405
C         72.14704       34.20588       24.27925
O         71.88403       35.22699       23.65774
C         71.25458       32.63565       22.56771
H         71.95822       31.52117       24.99377
H         73.33121       33.13633       22.81851
H         70.33865       32.47174       23.17498
H         71.06407       33.47807       21.86871
H         71.45214       31.72410       21.96432
N         72.13438       34.22580       25.64699
C         71.67968       35.38960       26.41913
C         72.09459       35.40362       27.90406
O         71.70098       36.33279       28.59610
C         70.14154       35.52243       26.28011
C         69.36484       34.33728       26.80249
O         69.98718       33.26262       27.32178
O         68.14629       34.34610       26.74296
H         72.37821       33.36418       26.13487
H         72.14835       36.30496       25.99368
H         69.87761       35.65491       25.20990
H         69.80328       36.43390       26.81825
N         72.92930       34.47577       28.45446
C         73.42448       34.52362       29.82037
C         72.39533       34.27096       30.90304
O         72.77905       34.36884       32.06053
H         73.32824       33.75060       27.87067
H         73.89848       35.51499       29.98707
H         74.21516       33.75046       29.94397
N         71.09025       33.95584       30.64765
C         70.11428       33.82456       31.72928
C         70.39655       32.67495       32.70311
O         69.79713       32.67886       33.76955
C         68.66490       33.73924       31.19848
C         68.34451       32.51258       30.37880
N         67.06708       32.27694       30.00772
O         69.21893       31.72496       30.05519
H         70.76889       33.87985       29.67443
H         70.17443       34.77011       32.31418
H         68.43531       34.63789       30.58539
H         67.98486       33.74690       32.07750
H         66.31241       32.92612       30.27196
H         66.82641       31.42914       29.47991
N         71.25877       31.65508       32.41267
C         71.59410       30.58911       33.35435
C         71.09108       29.21430       32.94078
O         71.41784       28.25657       33.62695
H         71.70881       31.62723       31.48848
H         71.17430       30.79070       34.36453
H         72.69909       30.56378       33.45857
N         70.22702       29.04490       31.89992
C         69.58773       27.77568       31.56087
C         69.61717       27.50488       30.06630
O         69.23480       28.37232       29.29535
C         68.10041       27.80941       32.00588
C         67.96165       27.67924       33.52292
O         67.46932       28.99641       31.59049
H         69.90950       29.87418       31.38937
H         70.05911       26.91586       32.08715
H         67.56557       26.92096       31.59084
H         67.15176       28.85758       30.66178
H         68.46705       28.51475       34.04823
H         66.88573       27.67613       33.79988
H         68.40341       26.71558       33.85966
N         69.89632       26.24788       29.60591
C         69.61523       25.82101       28.23206
C         68.14382       26.06630       27.94382
O         67.29563       25.69811       28.74569
C         69.99695       24.32104       28.00956
C         71.54384       24.18483       28.03174
C         69.42787       23.78791       26.67321
C         72.05825       22.75111       27.89357
H         70.19966       25.53475       30.28647
H         70.20927       26.42083       27.51113
H         69.54753       23.70997       28.82401
H         71.93774       24.58681       28.98856
H         71.97727       24.78494       27.20193
H         69.82582       24.36530       25.81234
H         69.65712       22.71361       26.53505
H         68.31970       23.84687       26.66316
H         73.16770       22.75737       27.94278
H         71.66538       22.11910       28.71632
H         71.78101       22.30782       26.91597
N         67.78691       26.67132       26.77805
C         66.42367       27.03635       26.42522
C         65.93913       26.12052       25.30748
O         66.69851       25.26535       24.88131
C         66.39508       28.51457       25.95298
C         67.26000       29.46143       26.75980
O         68.59906       29.26341       26.74661
O         66.78281       30.45549       27.27696
H         68.52292       26.87242       26.08729
H         65.75761       26.91591       27.30811
H         65.34127       28.86660       25.90328
H         66.81687       28.56371       24.92524
N         64.68752       26.22011       24.78179
C         64.23765       25.37555       23.67429
C         65.02888       25.62709       22.38367
O         65.55104       24.65431       21.85661
C         62.71520       25.50077       23.46023
C         62.20746       24.63307       22.32293
C         62.47351       23.24880       22.28103
C         61.45092       25.20941       21.28748
C         62.00351       22.46867       21.21961
C         60.97046       24.42157       20.23661
C         61.25001       23.05372       20.20018
H         64.03305       26.90459       25.19180
H         64.40277       24.31678       23.97397
H         62.43463       26.55951       23.28992
H         62.21488       25.17410       24.39756
H         63.05129       22.76727       23.05819
H         61.22310       26.26765       21.29674
H         62.22216       21.40863       21.18817
H         60.38083       24.87250       19.44917
H         60.88144       22.44686       19.38299
N         65.19460       26.86401       21.80625
C         65.92439       27.09057       20.55598
C         67.43457       26.87874       20.65993
O         68.11797       27.13495       19.67793
C         65.56331       28.53794       20.19719
C         65.42229       29.17846       21.55652
C         64.65578       28.10662       22.32450
H         65.55100       26.43668       19.73768
H         66.25240       29.04535       19.48771
H         64.54501       28.53856       19.74497
H         66.44394       29.26555       21.99148
H         64.94362       30.18064       21.56805
H         64.84644       28.27099       23.40037
H         63.56828       28.14271       22.10182
N         68.02201       26.37263       21.77828
C         69.44736       26.11266       21.91198
C         69.67880       24.61563       21.97624
O         70.45821       24.10728       21.18330
C         69.96244       26.80844       23.17298
C         69.72810       28.32294       23.09081
C         70.15600       29.01175       24.33673
O         70.68453       28.31439       25.36080
O         69.98543       30.21367       24.44130
H         67.44574       26.14696       22.59359
H         70.02112       26.51208       21.04540
H         71.04810       26.60384       23.30236
H         69.42506       26.40140       24.05549
H         68.64602       28.53413       22.95860
H         70.28830       28.74913       22.23124
N         68.99820       23.84036       22.86692
C         69.11615       22.40043       22.94403
H         68.13195       21.94470       22.70190
H         69.87269       21.99914       22.23945
H         69.39768       22.10966       23.97677
H         68.33010       24.27852       23.50654
Ca        70.54826       30.37700       27.26558
O         72.51295       27.46173       27.67493
H         72.60233       27.13431       26.74499
H         73.31550       27.11163       28.13606
O         72.67407       29.74458       30.03741
H         73.47576       30.25232       30.32057
H         72.97545       28.80383       29.99933

Ca 1.0



