%chk=holoCaM-CaMKII.loop2.water2.frame75.chk
%nprocshared=20
%mem=10GB
%nosave
#b3lyp/svp scf=(tight,noincore,xqc) Test 
#IOP(5/87=12) Density=Current Pop=(MK,readradii) iop(6/33=2) iop(6/42=6)

holoCaM-CaMKII.loop2.water2.frame75 

   -2  1 
C         72.42351       65.86499       87.47769
C         71.05558       65.72063       86.86770
O         70.94658       65.66094       85.65214
H         72.90807       66.79547       87.11989
H         72.37260       65.89859       88.58788
H         73.04898       64.99174       87.19356
N         69.96321       65.60830       87.66917
C         68.61707       65.34785       87.17226
C         68.01629       66.56886       86.48150
O         67.99698       67.62692       87.09596
C         67.71607       64.95897       88.36501
C         66.40686       64.36117       87.94444
O         65.50852       64.01366       88.88372
O         66.17169       64.13085       86.76940
H         70.11422       65.62448       88.69040
H         68.66495       64.46664       86.49339
H         67.54001       65.84926       89.00767
H         68.22368       64.18697       88.98052
N         67.44656       66.48398       85.23981
C         66.80024       67.62068       84.58052
C         65.29915       67.42197       84.33179
O         64.67494       68.37882       83.89385
C         67.51961       67.91034       83.25787
H         67.46158       65.58002       84.74994
H         66.88804       68.52763       85.21627
H         67.07909       68.79813       82.75500
H         68.59433       68.11843       83.44752
H         67.44230       67.03797       82.57289
N         64.65133       66.23413       84.54021
C         63.22937       66.02859       84.22482
C         62.43630       65.27978       85.30833
O         61.23982       65.11255       85.11179
C         63.10141       65.32836       82.85334
C         64.02415       64.16207       82.72945
O         64.88635       64.15774       81.86466
O         63.97464       63.15485       83.60621
H         65.20345       65.41288       84.81603
H         62.71060       67.00526       84.11008
H         63.38270       66.05432       82.05944
H         62.05119       65.01791       82.66356
N         62.98608       64.82571       86.47344
C         62.20441       64.17721       87.52627
C         61.59343       62.82470       87.16694
O         60.83733       62.31199       87.97942
H         63.97384       65.00758       86.66601
H         61.38446       64.86949       87.81733
H         62.84356       64.02451       88.42177
N         61.84658       62.19148       85.98582
C         61.17154       60.96126       85.56150
C         61.45434       59.72297       86.42184
O         60.81206       58.71058       86.17492
C         61.47131       60.66965       84.06538
C         62.91424       60.35949       83.74916
N         63.28843       60.08639       82.47806
O         63.75402       60.36222       84.63213
H         62.48393       62.64269       85.32768
H         60.07896       61.15798       85.62556
H         61.17245       61.55701       83.46496
H         60.85430       59.80894       83.73110
H         62.59966       60.09064       81.71261
H         64.27173       59.87044       82.25748
N         62.39078       59.69765       87.41583
C         62.61828       58.54367       88.27763
C         63.89828       57.77969       87.97341
O         64.17346       56.83367       88.69280
H         62.96259       60.52894       87.59101
H         61.78602       57.81131       88.19237
H         62.62795       58.89375       89.33263
N         64.67991       58.06766       86.88870
C         65.83948       57.26259       86.49145
C         67.06221       58.13798       86.22171
O         66.96930       59.35110       86.27674
C         65.49656       56.46493       85.19622
C         64.28631       55.53624       85.36645
O         65.31615       57.31984       84.09229
H         64.39890       58.82955       86.27112
H         66.09435       56.52935       87.28563
H         66.34921       55.79753       84.95190
H         64.45589       57.79747       84.20871
H         63.36288       56.11831       85.57006
H         64.13226       54.95067       84.43464
H         64.46098       54.82837       86.20370
N         68.22726       57.54839       85.81394
C         69.35615       58.28122       85.24952
C         69.34966       57.98577       83.76322
O         69.26885       56.82890       83.37830
C         70.71725       57.87069       85.88849
C         70.73762       58.22205       87.39500
C         71.88065       58.57229       85.14762
C         72.05508       57.85871       88.09024
H         68.27087       56.52158       85.77091
H         69.23861       59.37823       85.38988
H         70.85631       56.77278       85.77210
H         69.92086       57.66394       87.89972
H         70.55745       59.31025       87.53481
H         71.89290       58.28128       84.08280
H         71.79159       59.67765       85.22030
H         72.86896       58.25638       85.53134
H         72.28471       56.78123       87.95177
H         72.89930       58.46672       87.70372
H         71.97605       58.07568       89.17494
N         69.47650       59.00453       82.87004
C         69.47786       58.79684       81.42709
C         70.90654       58.75807       80.95319
O         71.79819       58.98379       81.75220
C         68.73037       59.94458       80.72452
C         67.39054       60.22200       81.32863
O         66.38463       60.26324       80.63921
O         67.33585       60.54725       82.63178
H         69.66778       59.95063       83.22729
H         68.99473       57.82570       81.18383
H         68.63878       59.74660       79.63458
H         69.31733       60.88066       80.85880
N         71.22243       58.44432       79.66991
C         72.61493       58.37985       79.25761
C         73.27564       59.75906       79.34550
O         74.30381       59.84285       80.00472
C         72.77670       57.71261       77.87710
C         74.23442       57.46663       77.57422
C         74.85660       58.12005       76.49970
C         74.98723       56.58181       78.37069
C         76.21054       57.89881       76.23164
C         76.33862       56.36204       78.09733
C         76.95073       57.02135       77.02939
H         70.47241       58.20351       79.00522
H         73.12907       57.69501       79.96859
H         72.31466       58.31770       77.08171
H         72.25521       56.73042       77.87463
H         74.29709       58.80647       75.87675
H         74.53062       56.05842       79.20190
H         76.68617       58.40982       75.40564
H         76.91018       55.68071       78.71473
H         77.99838       56.85148       76.82024
N         72.75882       60.89216       78.76229
C         73.36344       62.21878       78.86292
C         73.68967       62.63124       80.28606
O         74.79981       63.07199       80.54485
C         72.28437       63.15773       78.30054
C         71.62289       62.28460       77.26787
C         71.51683       60.95906       78.01127
H         74.27384       62.24442       78.22261
H         71.50271       63.35930       79.06889
H         72.66894       64.13340       77.93449
H         70.65985       62.66620       76.86706
H         72.34086       62.15844       76.42523
H         70.66871       60.95421       78.72829
H         71.38296       60.17274       77.25407
N         72.74749       62.49784       81.26085
C         72.94197       62.89602       82.65221
C         74.14431       62.18046       83.23933
O         75.06348       62.84714       83.69422
C         71.66577       62.59457       83.47310
C         70.46037       63.42666       82.98463
C         69.18075       63.07915       83.68829
O         68.15091       63.64787       83.36794
O         69.14110       62.12944       84.64059
H         71.85009       62.07046       80.98989
H         73.12700       63.99312       82.70132
H         71.84353       62.83160       84.54566
H         71.43352       61.51175       83.38811
H         70.27911       63.26041       81.90443
H         70.67562       64.50613       83.13673
N         74.21867       60.82216       83.22360
C         75.35571       60.06858       83.70851
H         76.15296       60.72141       84.12052
H         75.02273       59.36867       84.50198
H         75.78460       59.48042       82.86928
H         73.44156       60.28895       82.82248
Ca        65.74628       61.84566       83.42393
O         65.25853       61.41516       87.24455
H         65.22042       60.99556       88.14100
H         64.54692       62.10313       87.25904
O         68.28363       61.71301       87.39330
H         68.28503       61.80989       88.37771
H         69.22408       61.50811       87.16426

Ca 1.0



