%chk=holoCaM-CaMKII.loop3.water2.frame464.chk
%nprocshared=20
%mem=10GB
%nosave
#b3lyp/svp scf=(tight,noincore,xqc) Test 
#IOP(5/87=12) Density=Current Pop=(MK,readradii) iop(6/33=2) iop(6/42=6)

holoCaM-CaMKII.loop3.water2.frame464 

   0  1 
C         62.38313       72.09162       45.08021
C         62.25152       70.83845       44.27746
O         63.05151       70.62766       43.37570
H         62.31161       72.96758       44.40456
H         61.58501       72.16109       45.84857
H         63.36908       72.09363       45.59063
N         61.28330       69.92962       44.57282
C         61.17867       68.67643       43.85515
C         60.63817       68.92449       42.44791
O         59.53678       69.43678       42.30650
C         60.35710       67.66612       44.67502
C         60.50519       66.29796       44.10997
O         61.08211       66.15032       42.91157
O         60.06400       65.33390       44.70357
H         60.65733       70.10312       45.37458
H         62.20466       68.24067       43.81012
H         59.28481       67.95132       44.74757
H         60.78965       67.62951       45.69783
N         61.40894       68.63272       41.36201
C         61.06695       69.00785       39.99196
C         59.81161       68.30617       39.47904
O         58.93761       68.98206       38.95469
C         62.28422       68.77099       39.06450
C         62.21127       69.63555       37.79528
C         63.49027       69.53367       36.94927
C         63.48752       70.60755       35.84888
N         64.68351       70.52070       35.01214
H         62.33139       68.20701       41.53234
H         60.89881       70.10833       39.99821
H         62.41739       67.69023       38.83783
H         63.18841       69.12948       39.60435
H         62.11038       70.69371       38.12540
H         61.32534       69.36949       37.18032
H         63.56411       68.51583       36.50865
H         64.38278       69.70836       37.59115
H         63.45655       71.61276       36.32885
H         62.58365       70.49787       35.21089
H         64.66952       71.30330       34.31812
H         65.54612       70.60655       35.59753
H         64.69215       69.61127       34.49659
N         59.64204       66.95869       39.63899
C         58.44448       66.22406       39.20636
C         57.55885       65.79285       40.37604
O         56.50177       65.22983       40.12158
C         58.79291       65.01689       38.28506
C         59.71986       63.95618       38.83495
O         59.92953       62.94360       38.18975
O         60.36249       64.11732       39.99334
H         60.37661       66.45620       40.15165
H         57.79360       66.89451       38.60129
H         59.25114       65.39197       37.34731
H         57.83713       64.51577       38.01288
N         57.87553       66.07113       41.67206
C         56.99588       65.76485       42.78841
C         56.76772       64.28869       43.01988
O         55.72768       63.95296       43.57057
H         58.74340       66.57462       41.88876
H         56.01996       66.28264       42.65044
H         57.43698       66.16866       43.72426
N         57.70197       63.34679       42.69225
C         57.51549       61.93782       43.04457
C         57.74633       61.69927       44.54332
O         57.45527       60.61199       45.02093
C         58.43912       61.01870       42.21838
C         59.86042       61.04825       42.70786
N         60.47128       59.92537       43.13160
O         60.46293       62.09957       42.75538
H         58.55598       63.64233       42.19836
H         56.47525       61.66794       42.75412
H         58.39328       61.31332       41.14706
H         58.06654       59.97521       42.29658
H         59.99823       59.01155       43.11728
H         61.43107       59.98872       43.48088
N         58.32473       62.66329       45.32263
C         58.58738       62.54672       46.74474
C         60.04163       62.79571       47.13883
O         60.26263       62.92444       48.33499
H         58.57183       63.56075       44.90146
H         58.25943       61.56855       47.15564
H         57.97979       63.33712       47.23723
N         61.08395       62.87348       46.24619
C         62.46206       63.14345       46.68543
C         63.25004       64.06222       45.74920
O         62.78299       64.40520       44.67530
C         63.19585       61.83492       47.07093
C         63.28228       60.75010       46.01737
C         64.01084       60.92005       44.82677
C         62.65752       59.51260       46.26059
C         64.10978       59.86803       43.90279
C         62.75522       58.46838       45.33931
C         63.48403       58.64064       44.15585
O         63.57586       57.64269       43.25340
H         60.91048       62.68869       45.24894
H         62.41355       63.73841       47.62529
H         62.65397       61.42701       47.95121
H         64.22389       62.06023       47.42398
H         64.51291       61.85448       44.61816
H         62.09618       59.34883       47.17174
H         64.67129       60.00104       42.98752
H         62.26314       57.52671       45.54807
H         63.13670       56.78960       43.38509
N         64.46732       64.53332       46.15757
C         65.30797       65.49473       45.44214
C         66.61850       64.82907       45.05526
O         67.23509       64.17118       45.88179
C         65.57831       66.73460       46.36022
C         64.27959       67.56414       46.53377
C         66.71390       67.63218       45.80730
C         64.37997       68.62748       47.63208
H         64.82506       64.21163       47.06940
H         64.81760       65.86114       44.51359
H         65.91129       66.35547       47.35216
H         63.43984       66.89563       46.81583
H         64.01967       68.05246       45.56764
H         66.46086       68.02125       44.79814
H         66.93178       68.48384       46.47982
H         67.66713       67.06783       45.74454
H         63.41863       69.17809       47.70266
H         64.57976       68.13841       48.60935
H         65.17400       69.37299       47.43055
N         67.14830       65.07104       43.82195
C         68.44276       64.57638       43.36463
C         69.41949       65.73173       43.17288
O         69.05842       66.86885       43.42526
C         68.23863       63.81027       42.04958
O         67.70613       64.66770       41.07257
H         66.62585       65.68625       43.18245
H         68.88723       63.88633       44.11383
H         67.53692       62.96661       42.21699
H         69.20923       63.38155       41.71315
H         68.11632       64.42188       40.20375
N         70.69362       65.50178       42.74342
C         71.68004       66.55864       42.51894
C         71.24663       67.50364       41.41116
O         71.23325       68.70643       41.63061
C         73.03770       65.94629       42.15521
H         70.98004       64.52513       42.57884
H         71.82988       67.13275       43.46125
H         73.79228       66.74994       42.01177
H         73.38548       65.28874       42.98027
H         72.97096       65.34565       41.22343
N         70.87781       67.02046       40.19038
C         70.46035       67.86693       39.07347
C         69.29724       68.76023       39.46140
O         69.37858       69.96496       39.26729
C         70.06262       66.99598       37.87366
H         70.88041       65.99687       40.05708
H         71.31453       68.50446       38.75318
H         70.92238       66.36661       37.55911
H         69.21072       66.32951       38.12971
H         69.76867       67.63660       37.01443
N         68.19194       68.22847       40.04826
C         67.03349       69.01523       40.46802
C         67.42881       70.11484       41.44280
O         66.91929       71.21971       41.32008
C         65.96470       68.10801       41.11223
C         65.40559       67.07615       40.11125
C         64.34833       66.19217       40.71119
O         64.00247       66.29759       42.00889
O         63.80041       65.35534       40.01192
H         68.19797       67.21444       40.22972
H         66.56516       69.49414       39.57886
H         65.11853       68.74202       41.46065
H         66.40204       67.59724       41.99444
H         66.20956       66.41900       39.72610
H         64.96887       67.61624       39.24642
N         68.36068       69.89079       42.40933
C         68.80417       70.89032       43.35931
H         69.88705       71.08707       43.20684
H         68.25388       71.84814       43.25539
H         68.65508       70.50616       44.39011
H         68.80886       68.97252       42.45770
Ca        61.47987       64.27080       41.89000
O         62.72208       61.96514       40.12989
H         63.11371       61.06333       40.01632
H         61.74734       61.80438       40.18849
O         64.67504       63.08231       42.21117
H         64.93859       62.15375       41.99518
H         65.20894       63.63275       41.58742

Ca 1.0



