%chk=holoCaM.loop2.water2.frame174.chk
%nprocshared=20
%mem=10GB
%nosave
#b3lyp/svp scf=(tight,noincore,xqc) Test 
#IOP(5/87=12) Density=Current Pop=(MK,readradii) iop(6/33=2) iop(6/42=6)

holoCaM.loop2.water2.frame174 

   -2  1 
C         16.09263       66.94995        1.13518
C         17.09947       66.10904        1.86138
O         18.03668       66.64617        2.43328
H         15.08969       66.79301        1.58710
H         16.34967       68.02780        1.20387
H         16.05760       66.65199        0.06640
N         16.94733       64.75857        1.88887
C         17.83608       63.86578        2.62031
C         19.25214       63.91918        2.05187
O         19.42054       63.66903        0.86642
C         17.29296       62.42189        2.53509
C         17.96110       61.48199        3.49344
O         17.69567       60.29221        3.45346
O         18.77859       61.94657        4.45543
H         16.13290       64.35724        1.39711
H         17.82090       64.17630        3.68818
H         17.41000       62.05121        1.49357
H         16.21107       62.40286        2.78853
N         20.31727       64.21681        2.85109
C         21.70109       64.28284        2.38048
C         22.60367       63.22379        3.02330
O         23.77243       63.16821        2.66629
C         22.24734       65.68176        2.69279
H         20.13901       64.40701        3.84439
H         21.74347       64.12348        1.28198
H         23.28826       65.79476        2.32294
H         21.61502       66.45617        2.20904
H         22.24046       65.86062        3.79157
N         22.15013       62.38673        4.00089
C         22.99436       61.44022        4.73903
C         22.36934       60.04615        4.92159
O         23.03268       59.18974        5.49031
C         23.32590       62.03980        6.12696
C         22.11251       62.32730        6.98072
O         20.87141       62.11843        6.49971
O         22.25630       62.75515        8.11431
H         21.18502       62.51006        4.30212
H         23.96066       61.30227        4.20520
H         23.88748       62.98861        5.98690
H         23.98967       61.33334        6.67281
N         21.10827       59.74444        4.50201
C         20.47372       58.44685        4.68158
C         20.28166       58.02566        6.13293
O         20.74464       56.94708        6.47576
H         20.56485       60.44790        3.99610
H         21.06770       57.67676        4.14122
H         19.46857       58.47538        4.21012
N         19.57473       58.78527        7.02813
C         19.24423       58.32538        8.38674
C         17.73098       58.29923        8.66018
O         17.35164       58.02181        9.79002
C         20.03105       59.08819        9.48548
C         19.88027       60.60595        9.55273
N         20.49804       61.14643       10.75655
O         18.56284       61.02833        9.46920
H         19.23322       59.71015        6.72655
H         19.57315       57.27232        8.52527
H         21.11476       58.88444        9.34549
H         19.74222       58.66242       10.47095
H         21.53191       61.02007       10.68326
H         20.31151       62.17342       10.79290
N         16.80587       58.48548        7.67288
C         15.36444       58.34570        7.87771
C         14.67917       59.48655        8.62056
O         13.46843       59.41187        8.77238
H         17.13057       58.61822        6.70631
H         15.15711       57.37852        8.38582
H         14.87767       58.30354        6.87918
N         15.35427       60.57723        9.07924
C         14.71902       61.73482        9.71575
C         15.03910       63.00268        8.93461
O         15.81960       62.95363        7.99583
C         15.21666       61.88949       11.18168
C         14.74895       60.73799       12.06943
O         16.61867       61.96058       11.23369
H         16.36559       60.60928        8.94665
H         13.61275       61.62496        9.72761
H         14.78253       62.80575       11.64352
H         16.87660       62.88652       10.98588
H         13.63868       60.69941       12.08670
H         15.14580       59.76733       11.70742
H         15.10515       60.90373       13.10972
N         14.51333       64.20001        9.32385
C         14.92477       65.47245        8.74768
C         15.82358       66.14721        9.76190
O         15.36112       66.54037       10.82444
C         13.69345       66.34484        8.33102
C         13.07708       65.78294        7.02273
C         14.08084       67.82628        8.14503
C         11.82430       66.51972        6.53714
H         13.87857       64.22505       10.13591
H         15.54480       65.31323        7.84005
H         12.94311       66.31461        9.15213
H         12.81071       64.71512        7.16977
H         13.83420       65.84732        6.21274
H         13.19432       68.44817        7.91922
H         14.48597       68.25266        9.08447
H         14.82986       67.93628        7.33745
H         11.45855       66.04347        5.60304
H         11.02426       66.47210        7.30375
H         12.03796       67.57942        6.28807
N         17.14952       66.29384        9.48197
C         18.07506       67.02662       10.33502
C         17.84193       68.51329       10.13789
O         17.01206       68.88142        9.32600
C         19.53324       66.65641        9.99162
C         19.81000       65.20036       10.26012
O         19.19845       64.33163        9.66132
O         20.74044       64.84758       11.16680
H         17.51522       65.89664        8.60740
H         17.89703       66.75169       11.39848
H         20.22493       67.25368       10.62212
H         19.75023       66.88508        8.92555
N         18.52030       69.43692       10.87400
C         18.23046       70.85984       10.74682
C         18.57405       71.41571        9.36161
O         17.65117       71.93830        8.74506
C         18.84112       71.65882       11.91798
C         18.51242       73.13088       11.82618
C         17.17596       73.57062       11.76321
C         19.54659       74.08121       11.80136
C         16.88497       74.93276       11.66449
C         19.24946       75.44407       11.71330
C         17.92039       75.86921       11.64127
H         19.19082       69.11659       11.58603
H         17.13234       70.97063       10.88174
H         19.93197       71.51307       11.98518
H         18.41732       71.26108       12.86550
H         16.35527       72.86584       11.78259
H         20.58232       73.76904       11.85322
H         15.85519       75.26098       11.60668
H         20.05083       76.17066       11.69938
H         17.69218       76.92413       11.56860
N         19.81383       71.37091        8.77249
C         20.10022       71.91865        7.44711
C         19.15345       71.42789        6.36668
O         18.87144       72.16247        5.43328
C         21.51269       71.40710        7.13887
C         22.13202       71.37022        8.51197
C         21.00383       70.76803        9.34611
H         20.07620       73.02968        7.51429
H         21.46847       70.34806        6.79207
H         22.06018       72.00478        6.37802
H         23.10211       70.83435        8.58420
H         22.28265       72.42677        8.83530
H         20.93471       69.66342        9.23201
H         21.20171       71.04150       10.39220
N         18.65274       70.16439        6.43413
C         17.75652       69.59109        5.43845
C         16.44577       70.36054        5.43852
O         16.07020       70.89155        4.40203
C         17.55766       68.08011        5.71928
C         18.91494       67.33411        5.66747
C         18.82614       65.87434        5.99968
O         17.64358       65.27762        6.22398
O         19.85216       65.22166        6.09750
H         18.92182       69.58974        7.24345
H         18.22627       69.66585        4.43186
H         16.86985       67.64678        4.95931
H         17.10586       67.94217        6.72403
H         19.61563       67.76588        6.40716
H         19.37190       67.44992        4.66135
N         15.72748       70.50498        6.58751
C         14.51340       71.28910        6.69580
H         13.68360       70.64691        7.05344
H         14.67226       72.10224        7.43654
H         14.21546       71.74887        5.73112
H         16.07282       70.06462        7.44774
Ca        18.99786       62.29154        7.68782
O         15.35289       64.03115        5.12882
H         15.52430       64.92550        4.74119
H         14.68767       63.62081        4.52269
O         16.32246       60.96881        5.99813
H         16.03766       60.20893        5.43346
H         15.56944       61.60231        5.92648

Ca 1.0



