%chk=holoCaM.loop2.water2.frame293.chk
%nprocshared=20
%mem=10GB
%nosave
#b3lyp/svp scf=(tight,noincore,xqc) Test 
#IOP(5/87=12) Density=Current Pop=(MK,readradii) iop(6/33=2) iop(6/42=6)

holoCaM.loop2.water2.frame293 

   -2  1 
C         39.75486       47.01633       59.14284
C         39.80449       45.70446       58.41484
O         38.81508       44.99275       58.38842
H         39.97137       47.83981       58.42766
H         38.75067       47.19032       59.58393
H         40.51636       47.03080       59.94957
N         40.94177       45.33836       57.77067
C         41.04445       44.17191       56.89636
C         41.54532       42.94675       57.63620
O         42.33415       43.08316       58.56089
C         42.03987       44.52429       55.78581
C         42.29095       43.45795       54.75546
O         43.46000       43.17129       54.56633
O         41.33859       42.83560       53.99631
H         41.72901       46.00706       57.79623
H         40.07254       43.97757       56.39470
H         43.01883       44.76545       56.26768
H         41.71755       45.44606       55.28328
N         41.17006       41.70208       57.22181
C         41.71818       40.46721       57.77162
C         42.13182       39.45460       56.68063
O         42.54872       38.36709       57.05427
C         40.69224       39.87250       58.74521
H         40.44918       41.63125       56.49276
H         42.62123       40.68418       58.38178
H         40.47739       40.61571       59.54673
H         39.73964       39.61739       58.23683
H         41.10286       38.96642       59.24009
N         42.01640       39.70836       55.33348
C         42.26721       38.70844       54.28206
C         43.12604       39.19539       53.08588
O         43.42375       38.37839       52.22574
C         40.90270       38.18031       53.79026
C         39.95846       39.28226       53.40710
O         40.26174       40.07259       52.53896
O         38.78451       39.42506       54.04972
H         41.62556       40.60430       55.03055
H         42.80826       37.83576       54.70927
H         40.42564       37.61278       54.61715
H         41.04438       37.48437       52.93574
N         43.57634       40.47613       52.96692
C         44.45673       40.97490       51.90270
C         43.84975       41.12063       50.50480
O         44.57992       41.50520       49.60238
H         43.34795       41.11445       53.71935
H         45.35525       40.32354       51.85157
H         44.80168       41.99378       52.18583
N         42.54511       40.84300       50.24161
C         41.91951       40.89783       48.91171
C         41.71704       42.30620       48.30834
O         41.12487       42.38729       47.24037
C         40.57351       40.13712       48.96593
C         39.53019       40.75744       49.85480
N         38.34445       40.14060       50.01740
O         39.74607       41.80262       50.44684
H         41.98546       40.49034       51.01992
H         42.55083       40.31319       48.20677
H         40.77419       39.10790       49.33836
H         40.14847       40.04785       47.94336
H         38.14183       39.24114       49.55879
H         37.63430       40.57191       50.61360
N         42.19408       43.44518       48.88926
C         42.06378       44.77843       48.30271
C         40.69760       45.44456       48.43574
O         40.57995       46.57320       47.98008
H         42.77378       43.36622       49.72835
H         42.37251       44.74366       47.23470
H         42.77216       45.45445       48.82765
N         39.63220       44.84513       49.03947
C         38.31540       45.47285       49.19287
C         37.85896       45.47496       50.65198
O         38.53587       44.91750       51.50111
C         37.28663       44.70677       48.31285
C         37.56841       44.93549       46.82663
O         37.32259       43.32441       48.57051
H         39.74138       43.88916       49.38484
H         38.33515       46.53601       48.86646
H         36.25484       45.08632       48.48171
H         37.06183       43.18919       49.51778
H         36.81134       44.40243       46.21297
H         37.50343       46.02004       46.59068
H         38.57662       44.56425       46.54877
N         36.65969       46.04155       50.98526
C         36.01848       45.92739       52.29257
C         34.93812       44.87038       52.18030
O         34.16183       44.86106       51.23510
C         35.49523       47.30842       52.82856
C         36.65792       48.02963       53.56691
C         34.27822       47.15091       53.77466
C         36.30804       49.40920       54.13315
H         36.10181       46.47737       50.23567
H         36.72965       45.53049       53.04965
H         35.13282       47.91838       51.97222
H         37.51366       48.14684       52.86986
H         36.99258       47.39882       54.42302
H         33.88674       48.13386       54.10363
H         33.42843       46.67645       53.23900
H         34.53219       46.54132       54.66519
H         35.97558       50.08852       53.32262
H         35.52232       49.34659       54.91459
H         37.20633       49.84142       54.62303
N         34.83390       43.95949       53.18322
C         33.91320       42.84146       53.22411
C         32.82105       43.15113       54.23617
O         32.84122       44.22677       54.81153
C         34.70911       41.58411       53.64540
C         35.94709       41.32462       52.81369
O         36.89456       42.29789       52.68878
O         36.10586       40.22472       52.31149
H         35.44200       44.07219       54.00141
H         33.43592       42.68969       52.23149
H         34.04549       40.69207       53.64590
H         35.07064       41.73502       54.68475
N         31.80267       42.28199       54.47811
C         30.70821       42.60338       55.39096
C         31.16180       42.78424       56.84586
O         30.88701       43.85186       57.37710
C         29.57628       41.56453       55.28560
C         28.39586       41.95196       56.14801
C         27.67259       43.13248       55.88901
C         28.01505       41.13951       57.22790
C         26.59178       43.49049       56.70023
C         26.93522       41.50310       58.03768
C         26.22428       42.67703       57.77462
H         31.77477       41.39599       53.95143
H         30.26922       43.56703       55.04553
H         29.96105       40.56760       55.57170
H         29.23366       41.49200       54.23045
H         27.94192       43.77652       55.06115
H         28.55933       40.23013       57.44876
H         26.03988       44.39957       56.49683
H         26.65132       40.87470       58.87126
H         25.38899       42.95640       58.40345
N         31.83003       41.83303       57.58155
C         32.19014       42.02456       58.98618
C         33.21698       43.12456       59.18125
O         33.39846       43.57731       60.30263
C         32.72921       40.65363       59.41290
C         33.33072       40.13217       58.12119
C         32.27886       40.54511       57.09383
H         31.29287       42.28080       59.59093
H         33.40666       40.65655       60.29495
H         31.86217       39.99400       59.63842
H         34.26110       40.71099       57.92318
H         33.58327       39.05057       58.10872
H         32.76560       40.58575       56.09897
H         31.42066       39.84087       57.09885
N         33.94533       43.58224       58.13589
C         34.91477       44.65982       58.23252
C         34.17945       45.98118       58.30383
O         34.46790       46.78038       59.18231
C         35.85357       44.57959       57.02519
C         36.59182       43.21945       57.05992
C         37.49412       43.00876       55.90732
O         37.64155       43.87439       55.06431
O         38.13258       41.83099       55.79248
H         33.82249       43.12957       57.21866
H         35.56864       44.53276       59.12538
H         36.59006       45.41193       57.05048
H         35.26054       44.67345       56.09549
H         35.87448       42.37712       57.03653
H         37.18948       43.12831       57.99002
N         33.16515       46.24178       57.43189
C         32.35558       47.43953       57.44943
H         31.30274       47.15869       57.66951
H         32.69602       48.16794       58.21236
H         32.39028       47.91901       56.44901
H         32.91363       45.53125       56.73918
Ca        39.11999       42.52415       53.36185
O         41.51594       44.13747       51.69271
H         42.30207       43.56226       51.87515
H         41.90497       45.02032       51.47776
O         39.83855       45.58725       53.77162
H         40.35236       46.43027       53.82799
H         39.09480       45.71634       54.40785

Ca 1.0



