%chk=holoCaM-CaMKII.loop4.water1.frame344.chk
%nprocshared=20
%mem=10GB
%nosave
#b3lyp/svp scf=(tight,noincore,xqc) Test 
#IOP(5/87=12) Density=Current Pop=(MK,readradii) iop(6/33=2) iop(6/42=6)

holoCaM-CaMKII.loop4.water1.frame344 

   -3  1 
C         23.43953       61.53469       45.57694
C         23.19260       60.81067       44.28936
O         23.36917       59.60410       44.23153
H         24.22568       62.30404       45.42030
H         22.50418       62.03311       45.90732
H         23.77702       60.83237       46.36741
N         22.78110       61.50799       43.19917
C         22.53634       60.90417       41.89497
C         23.81535       60.26544       41.36538
O         24.83649       60.93758       41.31866
C         21.99922       61.99084       40.94601
C         21.66194       61.44975       39.59744
O         22.17619       61.93817       38.60939
O         20.77386       60.44783       39.46718
H         22.63904       62.52527       43.30990
H         21.74068       60.13159       41.99518
H         22.74114       62.81465       40.84616
H         21.06583       62.41347       41.37777
N         23.82073       58.96447       40.94396
C         25.02286       58.25676       40.50621
C         24.95481       58.05591       38.99707
O         25.79327       58.58628       38.28210
C         25.16593       56.87884       41.24807
C         25.01801       57.01624       42.78448
C         26.49799       56.20394       40.86478
C         25.01088       55.66905       43.51952
H         22.92678       58.45811       40.91852
H         25.92079       58.87390       40.73488
H         24.33977       56.21092       40.92753
H         24.03424       57.48055       42.99959
H         25.81684       57.66594       43.20018
H         26.57589       56.07985       39.76495
H         27.35669       56.81314       41.21840
H         26.57592       55.18646       41.29715
H         24.21393       55.00927       43.11289
H         25.98771       55.15200       43.43817
H         24.80808       55.83348       44.59870
N         23.97859       57.27625       38.45316
C         23.83981       56.98925       37.02325
C         23.45320       58.20069       36.15887
O         23.39780       58.03838       34.94719
C         22.82497       55.83639       36.81069
C         21.45557       56.12576       37.36678
O         20.54985       55.32483       37.20732
O         21.23761       57.26051       38.05567
H         23.33474       56.81266       39.10701
H         24.82088       56.61704       36.65256
H         23.20702       54.91833       37.30765
H         22.74290       55.62338       35.72277
N         23.21436       59.43954       36.67653
C         22.99061       60.61454       35.84462
C         21.64110       60.67724       35.15492
O         21.62509       60.83913       33.94307
H         23.28589       59.59213       37.69111
H         23.81711       60.70438       35.10473
H         23.05691       61.51972       36.47236
N         20.47060       60.64503       35.86583
C         19.16093       60.93954       35.26204
C         18.44006       62.11298       35.92917
O         17.45196       62.56205       35.36342
C         18.26638       59.68467       35.17414
C         17.92199       59.02368       36.47593
O         17.36396       57.93834       36.46050
O         18.31435       59.53558       37.65055
H         20.52691       60.43783       36.87100
H         19.31859       61.26019       34.20951
H         18.82203       58.93746       34.56667
H         17.32184       59.92409       34.64001
N         18.85319       62.66884       37.10814
C         18.24418       63.85277       37.69751
C         17.50330       63.57772       38.98994
O         17.09033       64.53975       39.61931
H         19.64454       62.26467       37.62307
H         17.52098       64.33703       37.00654
H         19.05715       64.58624       37.88870
N         17.22987       62.30840       39.41504
C         16.44726       62.01619       40.61620
C         17.20660       61.08065       41.54496
O         18.25269       60.57988       41.15938
C         15.04664       61.49869       40.20374
C         15.02175       60.23353       39.31942
C         15.44496       59.00173       40.06405
N         14.73193       58.57576       41.12945
O         16.42564       58.37271       39.69851
H         17.53677       61.51711       38.84085
H         16.27829       62.95336       41.18915
H         14.57281       62.31043       39.60932
H         14.41381       61.34862       41.10403
H         15.64941       60.38456       38.41623
H         13.98300       60.06388       38.96371
H         13.88669       59.07649       41.43887
H         15.02198       57.73718       41.64160
N         16.76567       60.85893       42.82338
C         17.51158       60.04429       43.78259
C         16.59296       58.99075       44.39435
O         15.69221       59.34890       45.13971
C         18.13026       60.95807       44.88517
C         19.01435       60.15907       45.85679
C         18.97491       62.08891       44.27041
H         15.91513       61.34234       43.14752
H         18.35353       59.53547       43.26810
H         17.30747       61.43334       45.46447
H         19.87385       59.70928       45.31685
H         19.41447       60.82787       46.64893
H         18.43669       59.35567       46.35563
H         18.35362       62.73723       43.61754
H         19.39288       62.73582       45.07153
H         19.81351       61.67464       43.67123
N         16.75861       57.66565       44.11173
C         15.94527       56.61123       44.72246
C         16.36877       56.35032       46.16182
O         17.32053       56.94403       46.64703
C         16.12892       55.27605       43.94885
C         15.53558       55.30805       42.57082
N         16.30739       55.10269       41.48169
O         14.33377       55.48868       42.43857
H         17.47226       57.39985       43.41816
H         14.86933       56.89251       44.69186
H         15.60433       54.44318       44.45731
H         17.21110       55.01769       43.91710
H         17.31691       54.93199       41.58392
H         15.89247       55.10749       40.53812
N         15.72297       55.38223       46.87242
C         16.22104       54.80422       48.11642
C         17.54600       54.09182       47.85046
O         18.43473       54.15876       48.68659
C         15.18787       53.78633       48.64653
C         15.59097       53.13773       49.95051
C         15.76317       53.90629       51.11522
C         15.77788       51.74677       50.01460
C         16.11450       53.29100       52.32164
C         16.12933       51.13467       51.22041
C         16.29698       51.90509       52.37949
O         16.62862       51.32542       53.55083
H         14.87394       54.96735       46.45876
H         16.34918       55.60151       48.88185
H         15.02872       53.00777       47.86735
H         14.21664       54.30351       48.80630
H         15.61831       54.97898       51.09368
H         15.64897       51.13319       49.13175
H         16.24018       53.89152       53.21401
H         16.26699       50.06126       51.25240
H         16.75580       50.36932       53.63341
N         17.74658       53.40482       46.68282
C         19.00128       52.73260       46.33719
C         20.18656       53.68951       46.24661
O         21.30665       53.20332       46.16582
C         18.89548       52.03539       44.95798
C         17.84606       50.91882       44.89281
C         17.79073       50.34422       43.50442
O         17.47313       51.04994       42.55924
O         18.08829       49.04800       43.29502
H         16.97058       53.36574       46.00971
H         19.21679       51.97958       47.12735
H         19.87798       51.58099       44.69651
H         18.66120       52.81106       44.19313
H         16.83593       51.29776       45.14880
H         18.11966       50.12221       45.61762
N         20.02659       55.04358       46.19936
C         21.13256       55.98324       46.06143
C         21.24025       56.91009       47.26741
O         22.18245       57.68930       47.31492
C         20.95393       56.80106       44.76504
C         20.82014       55.89711       43.53023
C         20.70635       56.69902       42.26802
O         21.50869       56.52901       41.36617
O         19.70538       57.58411       42.10727
H         19.08180       55.43444       46.21142
H         22.09721       55.43380       45.99534
H         21.83111       57.47122       44.63734
H         20.03669       57.42369       44.84683
H         19.90731       55.27076       43.62140
H         21.70447       55.22743       43.46273
N         20.33491       56.88326       48.28808
C         20.45527       57.72118       49.45940
H         19.59988       57.53260       50.14462
H         21.39549       57.47958       49.99873
H         20.44925       58.79172       49.16780
H         19.52724       56.25472       48.25454
Ca        19.29193       57.96996       38.86982
O         18.80600       55.02629       39.48464
H         18.67564       54.06972       39.70216
H         19.71160       55.23388       39.82500

Ca 1.0



