%chk=holoCaM.loop3.water1.frame23.chk
%nprocshared=20
%mem=10GB
%nosave
#b3lyp/svp scf=(tight,noincore,xqc) Test 
#IOP(5/87=12) Density=Current Pop=(MK,readradii) iop(6/33=2) iop(6/42=6)

holoCaM.loop3.water1.frame23 

   0  1 
C         73.82765       20.17762       39.53907
C         73.86301       21.39184       38.66022
O         74.03461       22.49058       39.16821
H         72.99570       20.27128       40.26697
H         73.67090       19.25218       38.94417
H         74.78990       20.08654       40.08312
N         73.70702       21.26461       37.31597
C         73.73015       22.39362       36.39795
C         72.60491       23.36730       36.73521
O         71.45801       22.95589       36.83887
C         73.65298       21.86456       34.95699
C         73.79840       22.92679       33.91743
O         73.94925       24.21694       34.23015
O         73.76280       22.61791       32.74756
H         73.57461       20.31666       36.92843
H         74.70840       22.90947       36.49571
H         72.69024       21.33530       34.80557
H         74.47711       21.13674       34.79432
N         72.89426       24.68440       36.94047
C         71.94653       25.69188       37.41772
C         70.67320       25.74025       36.58392
O         69.59506       25.66546       37.15631
C         72.65270       27.06852       37.46622
C         71.88465       28.11681       38.28478
C         72.68316       29.42767       38.37814
C         72.01104       30.42558       39.33130
N         72.77738       31.66945       39.41527
H         73.86949       24.98262       36.78093
H         71.67275       25.42188       38.46217
H         72.84880       27.43339       36.43381
H         73.63074       26.93309       37.97986
H         71.74331       27.71381       39.31202
H         70.88733       28.31358       37.83627
H         72.77667       29.87517       37.36444
H         73.70363       29.21391       38.76754
H         71.94478       29.97221       40.34617
H         70.98071       30.65043       38.97876
H         73.74908       31.47543       39.75117
H         72.81444       32.13221       38.47821
H         72.31053       32.31452       40.09319
N         70.72698       25.79820       35.22461
C         69.54632       25.78257       34.35986
C         69.33952       24.38875       33.76918
O         68.22796       23.88986       33.88858
C         69.55876       26.96585       33.35469
C         70.87015       27.16363       32.65325
O         71.55206       28.14266       32.91361
O         71.36883       26.22379       31.84427
H         71.65664       25.77845       34.78087
H         68.62276       25.95884       34.95831
H         69.37888       27.88848       33.95055
H         68.72524       26.87321       32.62564
N         70.35614       23.64886       33.23408
C         70.18805       22.25098       32.83560
C         70.57196       21.95277       31.40147
O         70.45870       20.79780       31.01382
H         71.30022       24.05026       33.19003
H         69.13837       21.91281       32.97382
H         70.81859       21.62247       33.49509
N         71.00944       22.91714       30.54276
C         71.29561       22.65175       29.13106
C         72.48988       21.71836       28.88766
O         72.70717       21.34823       27.74339
C         71.45270       23.98669       28.36267
C         72.71045       24.76213       28.68877
N         73.53355       25.18156       27.70141
O         72.97862       25.04003       29.84457
H         71.05682       23.88492       30.88227
H         70.38763       22.16018       28.71545
H         70.57424       24.62399       28.60527
H         71.42068       23.78559       27.27100
H         73.32440       24.97811       26.71378
H         74.38467       25.71824       27.92399
N         73.30909       21.31323       29.90159
C         74.44207       20.41024       29.75117
C         75.78724       21.07631       30.00632
O         76.78632       20.37314       29.93740
H         73.12236       21.64931       30.84151
H         74.48122       19.98772       28.72449
H         74.30534       19.56296       30.45733
N         75.91242       22.42304       30.20511
C         77.19932       23.12482       30.20208
C         77.30276       24.07885       31.38406
O         76.40563       24.89733       31.54357
C         77.28404       23.92043       28.88587
C         77.17144       22.99978       27.68908
C         75.92240       22.77834       27.08667
C         78.29848       22.33476       27.18113
C         75.79690       21.92043       25.99418
C         78.17480       21.47851       26.07920
C         76.92135       21.27016       25.48224
O         76.78384       20.44802       24.42263
H         75.06300       23.00739       30.21330
H         78.05579       22.41433       30.21719
H         78.22720       24.50585       28.82342
H         76.44912       24.65536       28.86160
H         75.04057       23.25433       27.47453
H         79.27051       22.48324       27.63373
H         74.82262       21.76010       25.54869
H         79.05162       20.97641       25.69136
H         77.53485       19.97931       24.03255
N         78.37246       24.05378       32.24182
C         78.47825       24.94144       33.40376
C         79.72183       25.82551       33.30513
O         80.82815       25.30642       33.37662
C         78.51495       24.10531       34.72314
C         77.33657       23.10426       34.78813
C         78.51016       25.03507       35.95161
C         77.38359       22.18460       36.01239
H         79.12807       23.36940       32.08139
H         77.58781       25.60193       33.44739
H         79.45538       23.50986       34.73307
H         77.37296       22.44237       33.89708
H         76.37704       23.65525       34.77528
H         78.60660       24.46534       36.89442
H         79.37538       25.71612       35.92512
H         77.57885       25.63684       35.98718
H         78.35048       21.64077       36.05090
H         77.23756       22.75082       36.95418
H         76.56850       21.43661       35.94836
N         79.61071       27.18127       33.16673
C         80.76510       28.08779       33.19874
C         81.29386       28.24244       34.62308
O         80.69823       27.70033       35.53476
C         80.36775       29.47654       32.65713
O         79.39263       30.07998       33.46991
H         78.66859       27.57950       33.03318
H         81.55879       27.68823       32.52937
H         80.01161       29.38215       31.60417
H         81.25151       30.14814       32.61884
H         78.51851       29.97525       33.01170
N         82.39821       28.99352       34.89983
C         82.83809       29.27752       36.26837
C         81.85409       30.20418       36.96804
O         81.48379       29.92903       38.10141
C         84.22739       29.91280       36.27845
H         82.93366       29.39201       34.11368
H         82.94210       28.32626       36.83936
H         84.23796       30.87881       35.73450
H         84.54893       30.08199       37.33054
H         84.95402       29.21498       35.80995
N         81.34983       31.30181       36.32195
C         80.36467       32.22308       36.90297
C         79.03684       31.56060       37.27464
O         78.17349       32.24453       37.80773
C         80.06633       33.35457       35.90526
H         81.68174       31.48606       35.36227
H         80.80409       32.66973       37.82120
H         79.36056       34.09330       36.34325
H         81.00061       33.88867       35.63414
H         79.61036       32.93962       34.97862
N         78.80060       30.24486       37.02669
C         77.56300       29.54923       37.31431
C         77.81010       28.53148       38.41893
O         77.11400       28.57572       39.42340
C         77.09817       28.92235       35.99300
C         75.77476       28.17908       36.09768
C         75.41724       27.63824       34.75010
O         75.20519       28.38880       33.81056
O         75.37035       26.31371       34.56505
H         79.51953       29.68009       36.57084
H         76.77329       30.25305       37.66217
H         77.87723       28.22112       35.61646
H         76.98622       29.74320       35.24919
H         74.96983       28.85626       36.45030
H         75.88180       27.33847       36.81666
N         78.81915       27.62010       38.32253
C         79.16134       26.67035       39.36093
H         80.19755       26.87201       39.70880
H         78.47952       26.72970       40.23337
H         79.12462       25.64178       38.94892
H         79.40834       27.61245       37.48699
Ca        73.38605       25.60119       32.56833
O         74.67500       27.71341       30.42317
H         73.74229       27.98119       30.22559
H         75.06804       27.51077       29.53736

Ca 1.0



