%chk=holoCaM.loop4.water3.frame334.chk
%nprocshared=20
%mem=10GB
%nosave
#b3lyp/svp scf=(tight,noincore,xqc) Test 
#IOP(5/87=12) Density=Current Pop=(MK,readradii) iop(6/33=2) iop(6/42=6)

holoCaM.loop4.water3.frame334 

   -3  1 
C         23.55625        8.24291      -11.79548
C         23.61726        6.92213      -12.50153
O         22.59786        6.25785      -12.59006
H         22.52514        8.44433      -11.43055
H         24.24738        8.24001      -10.92794
H         23.84521        9.05177      -12.49860
N         24.79316        6.47525      -13.02909
C         24.92330        5.21253      -13.75492
C         26.38551        4.94139      -14.08880
O         27.00206        5.73044      -14.79135
C         24.07667        5.23470      -15.04715
C         24.28025        4.01604      -15.90894
O         24.70167        4.15656      -17.04583
O         24.01145        2.77049      -15.46638
H         25.63180        7.06189      -12.89554
H         24.55202        4.39546      -13.10524
H         24.35559        6.13542      -15.63768
H         22.99764        5.30786      -14.80593
N         26.98753        3.81361      -13.61410
C         28.36854        3.42839      -13.88297
C         28.46176        2.07354      -14.59296
O         29.57282        1.70237      -14.94562
C         29.19960        3.41179      -12.55562
C         28.57308        2.47777      -11.47993
C         29.36517        4.84653      -12.02351
C         29.43573        2.28369      -10.23161
H         26.43168        3.18526      -13.02815
H         28.83950        4.16135      -14.57454
H         30.21854        3.03701      -12.79977
H         28.40358        1.47161      -11.91921
H         27.59911        2.88533      -11.14607
H         30.03466        4.87379      -11.14043
H         29.83562        5.48580      -12.80054
H         28.38366        5.28493      -11.74501
H         30.41511        1.83949      -10.50505
H         29.59642        3.23764       -9.69061
H         28.91543        1.59247       -9.53377
N         27.37547        1.26773      -14.81286
C         27.47322       -0.05920      -15.42759
C         26.54901       -0.24971      -16.63692
O         26.57351       -1.32869      -17.21318
C         27.26526       -1.14468      -14.34385
C         25.94128       -1.14637      -13.62680
O         25.06333       -0.34519      -13.89763
O         25.73131       -2.05108      -12.65219
H         26.45168        1.56623      -14.47860
H         28.50343       -0.22757      -15.80943
H         28.05563       -1.00708      -13.57340
H         27.41310       -2.14700      -14.80025
N         25.73989        0.74565      -17.10762
C         24.90389        0.62854      -18.30128
C         23.75052       -0.36467      -18.22069
O         23.05364       -0.50570      -19.21582
H         25.76966        1.66345      -16.65331
H         25.55341        0.35259      -19.15970
H         24.45851        1.62319      -18.52115
N         23.48731       -1.09790      -17.10346
C         22.44694       -2.12889      -17.03255
C         21.00836       -1.61232      -17.10196
O         20.10633       -2.43936      -17.10623
C         22.65495       -2.97359      -15.75371
C         22.58050       -2.19650      -14.46189
O         22.28396       -1.01159      -14.44280
O         22.87867       -2.81776      -13.30763
H         24.10009       -0.97446      -16.28926
H         22.59207       -2.81921      -17.89354
H         23.66954       -3.42267      -15.81587
H         21.91978       -3.80710      -15.71799
N         20.70051       -0.28641      -17.15365
C         19.33113        0.20389      -17.19735
C         18.58521       -0.12726      -15.92635
O         17.50960       -0.70503      -15.98808
H         21.45157        0.41621      -17.15841
H         18.80240       -0.19447      -18.09064
H         19.35358        1.31186      -17.28462
N         19.10685        0.26125      -14.73238
C         18.44190        0.11055      -13.43610
C         19.22032        0.83301      -12.33951
O         20.32766        1.29559      -12.57965
C         18.16619       -1.37218      -13.07120
C         19.41894       -2.26454      -13.07099
C         19.10856       -3.70652      -12.72274
N         20.09297       -4.63483      -12.72539
O         17.96852       -4.04801      -12.44215
H         20.01667        0.73897      -14.77729
H         17.46337        0.63596      -13.50138
H         17.44635       -1.79819      -13.79969
H         17.67835       -1.41869      -12.07362
H         20.15980       -1.87257      -12.34352
H         19.86087       -2.24639      -14.08806
H         21.05869       -4.38202      -12.96564
H         19.88913       -5.61801      -12.49301
N         18.66589        1.01884      -11.10978
C         19.29849        1.82385      -10.07230
C         19.63628        0.94327       -8.89028
O         18.76859        0.25599       -8.36906
C         18.38769        3.01739       -9.66774
C         19.08314        3.91264       -8.62448
C         18.03326        3.88315      -10.88769
H         17.73669        0.61683      -10.91027
H         20.24198        2.27601      -10.44903
H         17.44091        2.62860       -9.23350
H         18.43286        4.76938       -8.34804
H         19.29815        3.34551       -7.69837
H         20.03896        4.31517       -9.02789
H         17.49932        3.28817      -11.65727
H         17.36957        4.72094      -10.58545
H         18.94877        4.31608      -11.33750
N         20.89613        0.97893       -8.38277
C         21.34162        0.24778       -7.21089
C         21.41139        1.22601       -6.05206
O         21.21664        2.41296       -6.25523
C         22.71532       -0.38987       -7.55564
C         23.40705       -1.12854       -6.43799
N         22.84937       -2.22027       -5.86950
O         24.50382       -0.74576       -6.05732
H         21.56074        1.64938       -8.78644
H         20.60244       -0.53625       -6.93718
H         23.39711        0.42092       -7.89918
H         22.58161       -1.09384       -8.40533
H         21.93243       -2.56774       -6.18194
H         23.34258       -2.72004       -5.11497
N         21.61582        0.79073       -4.78546
C         21.71296        1.69451       -3.64212
C         22.88809        2.65348       -3.77429
O         22.69342        3.83865       -3.53717
C         21.66311        0.92892       -2.29080
C         22.39889       -0.39638       -2.23892
C         21.64099       -1.58190       -2.14837
C         23.79774       -0.49021       -2.29497
C         22.26287       -2.82865       -2.13617
C         24.42086       -1.74513       -2.28776
C         23.65286       -2.91796       -2.21248
O         24.23540       -4.13345       -2.21464
H         21.68106       -0.22368       -4.63751
H         20.80592        2.34309       -3.60858
H         20.58477        0.69782       -2.14093
H         21.94726        1.59275       -1.44621
H         20.55905       -1.54664       -2.10109
H         24.40903        0.39710       -2.34364
H         21.65905       -3.72585       -2.07568
H         25.49983       -1.80590       -2.34340
H         25.19372       -4.24611       -2.27949
N         24.12098        2.23953       -4.18187
C         25.26987        3.14375       -4.27029
C         25.12695        4.20653       -5.37338
O         26.00627        5.04782       -5.48518
C         26.56126        2.30276       -4.45831
C         27.87964        3.06546       -4.21579
C         27.95356        3.61111       -2.81462
O         28.07744        4.81071       -2.62626
O         27.87844        2.77662       -1.75945
H         24.25388        1.24142       -4.39412
H         25.34775        3.65536       -3.28662
H         26.56547        1.85163       -5.47490
H         26.54433        1.46837       -3.72236
H         28.01131        3.88104       -4.95366
H         28.72822        2.36318       -4.35644
N         24.04554        4.25577       -6.20676
C         23.88476        5.23583       -7.27426
C         22.79246        6.21307       -6.89090
O         23.06423        7.40282       -6.80689
C         23.55328        4.53035       -8.60666
C         24.58381        3.44924       -8.95360
C         24.26577        2.80954      -10.26857
O         25.09934        2.79421      -11.15003
O         23.07195        2.23644      -10.48687
H         23.29087        3.57642       -6.09570
H         24.82575        5.81207       -7.42224
H         23.51146        5.29128       -9.41833
H         22.55721        4.04078       -8.53908
H         24.56837        2.65761       -8.17506
H         25.60385        3.89127       -8.99033
N         21.53388        5.77795       -6.60936
C         20.47937        6.66869       -6.18229
H         19.55277        6.08675       -5.98730
H         20.77710        7.17982       -5.24183
H         20.27193        7.42131       -6.97065
H         21.31467        4.77820       -6.67890
Ca        23.29082        2.12062      -13.43322
O         21.21081        3.97600      -13.01935
H         21.25116        3.90991      -12.03225
H         20.24843        4.03740      -13.23734
O         23.01527       -0.48428      -11.21866
H         22.24660       -1.09210      -11.35257
H         23.77399       -1.08295      -11.00607
O         21.23413        2.78672      -15.71765
H         20.29654        3.08729      -15.62192
H         21.46081        2.96429      -16.66432

Ca 1.0



