%chk=holoCaM.loop2.water1.frame337.chk
%nprocshared=20
%mem=10GB
%nosave
#b3lyp/svp scf=(tight,noincore,xqc) Test 
#IOP(5/87=12) Density=Current Pop=(MK,readradii) iop(6/33=2) iop(6/42=6)

holoCaM.loop2.water1.frame337 

   -2  1 
C          7.23059       32.33513        6.27360
C          7.33260       32.52594        4.78609
O          6.75645       31.74755        4.04466
H          6.16453       32.41249        6.57837
H          7.62598       31.34178        6.56370
H          7.79658       33.11837        6.82320
N          8.01626       33.58610        4.28315
C          8.03453       33.94770        2.86802
C          8.78936       32.95364        1.97948
O          9.56049       32.13443        2.45735
C          8.63697       35.37232        2.76970
C          8.86144       35.97100        1.41141
O          9.99368       36.30399        1.10015
O          7.88029       36.18809        0.52025
H          8.46368       34.22389        4.96048
H          6.98351       33.99446        2.51832
H          9.63030       35.34718        3.27160
H          7.98212       36.06505        3.33984
N          8.60554       33.04931        0.63092
C          9.33104       32.31144       -0.41021
C          9.12562       32.86958       -1.84826
O          9.72528       32.31503       -2.75876
C          8.94690       30.82224       -0.36993
H          7.89448       33.72497        0.37957
H         10.41911       32.40733       -0.20447
H          9.16091       30.37894        0.62400
H          7.86551       30.69329       -0.59137
H          9.53121       30.24744       -1.12155
N          8.31231       33.93496       -2.14052
C          8.02809       34.47418       -3.46767
C          8.25715       35.99736       -3.53646
O          8.03009       36.56315       -4.59686
C          6.56340       34.09005       -3.83782
C          5.60253       34.27010       -2.68438
O          5.44335       35.47460       -2.12384
O          5.09744       33.29349       -2.15402
H          7.78491       34.40791       -1.41425
H          8.68892       34.02133       -4.23923
H          6.56472       33.00554       -4.08184
H          6.22118       34.63587       -4.74260
N          8.72778       36.72536       -2.47661
C          8.99946       38.16003       -2.51462
C          7.78835       39.07503       -2.66531
O          8.00066       40.27960       -2.68799
H          8.98474       36.24406       -1.60879
H          9.71953       38.36890       -3.33507
H          9.49203       38.44715       -1.55840
N          6.50691       38.61601       -2.78165
C          5.35828       39.50464       -2.98889
C          4.99673       40.37498       -1.77597
O          4.08406       41.18046       -1.89993
C          4.12577       38.70396       -3.47643
C          3.53028       37.73650       -2.48419
N          2.44583       37.00904       -2.83223
O          4.01207       37.60184       -1.37126
H          6.34793       37.60491       -2.80047
H          5.61511       40.18370       -3.83308
H          4.41398       38.13627       -4.38864
H          3.32850       39.42239       -3.76496
H          2.02559       37.10517       -3.76776
H          2.02180       36.35123       -2.16531
N          5.66575       40.29658       -0.58872
C          5.39696       41.16996        0.54801
C          4.13785       40.85905        1.34611
O          3.93467       41.53365        2.34506
H          6.46011       39.65043       -0.49661
H          5.39551       42.22987        0.21182
H          6.23684       41.05481        1.26711
N          3.27174       39.85668        1.01779
C          2.11498       39.48301        1.83816
C          2.22851       38.03640        2.30652
O          3.15424       37.34203        1.91278
C          0.80110       39.72402        1.05049
C          0.54337       41.22198        0.87470
O          0.84826       39.11445       -0.21496
H          3.43824       39.31670        0.16391
H          2.07675       40.08954        2.76873
H         -0.07525       39.33949        1.61938
H          0.76398       38.13655       -0.07240
H         -0.41451       41.38086        0.33529
H          0.46078       41.70906        1.87132
H          1.36263       41.70627        0.30396
N          1.29639       37.51637        3.16141
C          1.33758       36.14637        3.66301
C          0.29597       35.33633        2.91221
O         -0.89311       35.58808        3.04705
C          1.15457       36.11647        5.21663
C          2.38293       36.77631        5.90213
C          0.94389       34.68150        5.74073
C          2.29655       36.84169        7.43114
H          0.49988       38.10542        3.44602
H          2.32243       35.69000        3.43962
H          0.23511       36.68949        5.47116
H          2.49301       37.81654        5.52858
H          3.30470       36.21340        5.63357
H          1.84242       34.06155        5.56463
H          0.71611       34.68157        6.82527
H          0.06516       34.20780        5.25919
H          1.39503       37.40658        7.74683
H          2.27702       35.82886        7.88353
H          3.19788       37.35372        7.82965
N          0.70924       34.35471        2.05796
C         -0.18852       33.51329        1.27184
C         -0.85414       32.47565        2.16647
O         -0.58841       32.46816        3.35590
C          0.60210       32.79711        0.14790
C          1.27338       33.75905       -0.80097
O          2.25366       34.57760       -0.37267
O          0.95312       33.77766       -1.97865
H          1.72197       34.21561        1.94425
H         -0.95788       34.15023        0.78136
H         -0.09878       32.17495       -0.44634
H          1.37305       32.12758        0.58298
N         -1.72899       31.55720        1.66649
C         -2.34597       30.51197        2.48199
C         -1.32919       29.52232        3.06647
O         -1.35730       29.35719        4.27654
C         -3.44984       29.77422        1.69692
C         -4.19772       28.77934        2.56281
C         -4.84936       29.19812        3.74044
C         -4.25689       27.42279        2.19927
C         -5.53288       28.27751        4.53875
C         -4.95160       26.50677        2.99728
C         -5.58599       26.93321        4.16698
H         -1.98321       31.61526        0.66826
H         -2.85746       31.02187        3.32710
H         -3.01335       29.27299        0.80805
H         -4.18232       30.52562        1.33109
H         -4.82915       30.23459        4.04957
H         -3.77089       27.07322        1.29727
H         -6.02332       28.60833        5.44557
H         -4.99850       25.46473        2.70934
H         -6.12045       26.22320        4.78493
N         -0.40272       28.82754        2.32340
C          0.57377       27.91393        2.91576
C          1.46300       28.63226        3.91580
O          1.76186       28.06350        4.95742
C          1.33856       27.35893        1.70250
C          1.23763       28.47452        0.68722
C         -0.20081       28.94713        0.89089
H          0.09875       27.05213        3.43534
H          2.36218       26.97746        1.91164
H          0.74128       26.51919        1.28052
H          1.93604       29.28059        0.99241
H          1.48909       28.19451       -0.35792
H         -0.27176       29.97408        0.49670
H         -0.91638       28.27026        0.37566
N          1.87195       29.90687        3.69278
C          2.69666       30.66955        4.61977
C          1.98320       30.85927        5.95270
O          2.60851       30.70085        6.99121
C          3.09002       32.02528        3.99370
C          3.86229       31.81796        2.67170
C          4.40688       33.08160        2.08016
O          4.26305       34.26844        2.69934
O          5.00943       33.02550        1.02109
H          1.55019       30.37026        2.83417
H          3.65187       30.12726        4.80151
H          3.74309       32.56334        4.71650
H          2.18651       32.63914        3.79639
H          3.20659       31.36016        1.90767
H          4.70889       31.12422        2.84119
N          0.65372       31.14505        5.99423
C         -0.08993       31.30320        7.22397
H         -1.16468       31.47399        6.99138
H         -0.00985       30.38372        7.84129
H          0.29273       32.17657        7.79034
H          0.13481       31.21617        5.11835
Ca         5.74415       35.64143        0.10611
O          5.81567       38.13951        1.66265
H          5.61057       37.87636        2.59397
H          6.78326       38.34232        1.66734

Ca 1.0



