%chk=holoCaM-CaMKII.loop4.water1.frame407.chk
%nprocshared=20
%mem=10GB
%nosave
#b3lyp/svp scf=(tight,noincore,xqc) Test 
#IOP(5/87=12) Density=Current Pop=(MK,readradii) iop(6/33=2) iop(6/42=6)

holoCaM-CaMKII.loop4.water1.frame407 

   -3  1 
C         34.78509       45.10558       61.90884
C         33.44164       45.33184       62.51345
O         32.99443       46.46698       62.60086
H         35.52298       44.97334       62.72690
H         34.76240       44.18012       61.29469
H         35.07175       45.95998       61.26402
N         32.73080       44.26480       62.95204
C         31.41888       44.38828       63.54580
C         31.49161       45.20442       64.83434
O         32.19757       44.83999       65.76334
C         30.86667       42.99403       63.80481
C         29.47231       42.99036       64.27111
O         28.96245       41.80502       64.58361
O         28.80059       44.00508       64.35746
H         33.13056       43.32193       62.81993
H         30.74623       44.87537       62.80044
H         31.48907       42.47657       64.56499
H         30.87060       42.39960       62.86487
N         30.79380       46.36267       64.90515
C         30.79280       47.31687       65.99699
C         29.86533       46.86859       67.12531
O         30.28793       46.87474       68.27304
C         30.39215       48.72456       65.42498
C         31.46202       49.17912       64.37536
C         30.23371       49.75247       66.55473
C         31.41034       50.66507       64.00369
H         30.28236       46.63445       64.07326
H         31.82610       47.43569       66.39445
H         29.39819       48.67329       64.91992
H         31.35719       48.56953       63.45362
H         32.48543       48.99223       64.76014
H         29.42664       49.44310       67.24891
H         31.18771       49.87446       67.10423
H         29.90416       50.73117       66.14677
H         31.70416       51.27144       64.88799
H         32.15160       50.88974       63.20866
H         30.39936       50.96836       63.66224
N         28.57812       46.49939       66.86281
C         27.56019       46.22549       67.89222
C         27.25462       44.74068       68.11525
O         26.51212       44.44422       69.04181
C         26.26525       47.03469       67.60649
C         25.63500       46.81061       66.26682
O         24.53093       47.50198       65.93138
O         26.09562       46.00615       65.48540
H         28.32505       46.43406       65.87042
H         27.93908       46.57485       68.87809
H         26.49253       48.11715       67.67995
H         25.48986       46.77823       68.35862
N         27.85025       43.75329       67.39451
C         27.73415       42.33573       67.73222
C         26.39660       41.70749       67.35991
O         25.56115       41.44343       68.20997
H         28.50765       44.02384       66.66022
H         27.98716       42.18230       68.79797
H         28.51083       41.78192       67.15905
N         26.19278       41.41291       66.05440
C         25.01841       40.83271       65.40494
C         25.38743       39.73334       64.36875
O         24.52996       38.92061       64.05192
C         24.24905       42.00585       64.74232
C         25.11825       42.86007       63.82896
O         24.75318       44.07703       63.44095
O         26.25788       42.55161       63.57123
H         26.94744       41.72525       65.47473
H         24.35577       40.37613       66.17598
H         23.94173       42.67068       65.58130
H         23.32465       41.65935       64.23391
N         26.62011       39.68723       63.76706
C         27.09815       38.72149       62.78999
C         27.42401       39.36408       61.44803
O         27.92573       38.66895       60.57636
H         27.31087       40.39132       63.98221
H         26.37026       37.90136       62.62648
H         28.03915       38.28852       63.19241
N         27.10524       40.66299       61.18835
C         27.19045       41.28333       59.88291
C         27.84480       42.66069       59.90736
O         28.10120       43.22182       60.96581
C         25.77088       41.25492       59.27472
C         24.62616       41.79635       60.15267
C         24.58559       43.28285       60.10482
N         23.66631       43.87419       59.31884
O         25.39212       43.95812       60.72376
H         26.62887       41.19558       61.90020
H         27.83379       40.67086       59.21805
H         25.53396       40.18197       59.12405
H         25.74046       41.74419       58.27582
H         24.58840       41.40651       61.19394
H         23.68729       41.42436       59.69174
H         23.00485       43.32207       58.75688
H         23.63334       44.88260       59.23561
N         28.21883       43.20741       58.71367
C         28.92158       44.46909       58.52819
C         28.15946       45.27834       57.46565
O         28.14585       44.89624       56.30545
C         30.37966       44.15148       58.07236
C         31.19322       45.38984       57.66772
C         31.14723       43.38236       59.16917
H         28.04764       42.65177       57.86459
H         28.97218       45.03703       59.48737
H         30.31226       43.50890       57.16747
H         31.48171       46.00149       58.54598
H         32.11850       45.05093       57.14980
H         30.63724       46.01981       56.94585
H         31.15480       43.96106       60.12015
H         30.68038       42.39447       59.36456
H         32.20128       43.20273       58.86612
N         27.46801       46.39074       57.82071
C         26.72237       47.28969       56.94721
C         27.69040       48.20055       56.22322
O         28.88539       48.07664       56.43282
C         25.77281       48.15582       57.82563
C         24.76882       47.29231       58.53540
N         24.80900       47.16552       59.88091
O         23.92003       46.70681       57.88299
H         27.46308       46.62361       58.79174
H         26.10815       46.70708       56.22964
H         25.20040       48.90076       57.23694
H         26.38432       48.71122       58.57266
H         25.51293       47.68779       60.40502
H         24.16319       46.56227       60.41005
N         27.24838       49.16800       55.37279
C         28.14362       50.16487       54.78603
C         28.70859       51.05557       55.89594
O         29.88815       51.37349       55.86481
C         27.39144       51.00830       53.73109
C         28.29269       51.98232       52.99562
C         29.28878       51.52273       52.11089
C         28.12971       53.36597       53.17386
C         30.10317       52.43369       51.42355
C         28.95238       54.27154       52.49761
C         29.94219       53.80974       51.62088
O         30.74077       54.67937       50.96873
H         26.23820       49.22026       55.16832
H         28.96818       49.64276       54.25243
H         26.55979       51.54804       54.23235
H         26.93868       50.33323       52.97076
H         29.42763       50.46206       51.94149
H         27.37172       53.74732       53.84480
H         30.86078       52.07152       50.73800
H         28.81959       55.33434       52.65411
H         30.67170       55.63626       51.10263
N         27.90450       51.48698       56.91564
C         28.36432       52.31824       58.03675
C         29.36128       51.61851       58.97623
O         29.96070       52.29440       59.80139
C         27.14762       52.89660       58.79727
C         26.26132       51.85095       59.51225
C         24.96402       52.43339       60.01796
O         24.66576       53.60011       59.81042
O         24.09722       51.64028       60.67579
H         26.90873       51.23351       56.86279
H         28.89188       53.18918       57.58841
H         26.53473       53.42709       58.03567
H         27.48967       53.64581       59.54447
H         26.82470       51.41413       60.36360
H         25.97847       51.03222       58.82489
N         29.62504       50.28593       58.86328
C         30.68494       49.56563       59.57215
C         31.83228       49.24913       58.61176
O         32.93855       49.00796       59.07510
C         30.11826       48.23863       60.12106
C         29.11227       48.45013       61.25451
C         28.40126       47.16425       61.60287
O         28.55420       46.49483       62.73820
O         27.52895       46.76231       60.88597
H         29.07772       49.75083       58.18520
H         31.11266       50.18666       60.39333
H         30.93415       47.59036       60.50956
H         29.63482       47.70538       59.27211
H         28.33844       49.19418       60.95894
H         29.64311       48.86877       62.12558
N         31.64201       49.25382       57.26170
C         32.65099       48.99084       56.26577
H         33.62082       48.69239       56.70780
H         32.28907       48.18249       55.59323
H         32.78375       49.91037       55.65712
H         30.72262       49.45341       56.88272
Ca        26.67734       45.27942       63.11903
O         25.20233       47.31081       62.70595
H         24.79999       47.09643       63.57736
H         25.36231       48.28328       62.70792

Ca 1.0



