%chk=holoCaM.loop2.water2.frame123.chk
%nprocshared=20
%mem=10GB
%nosave
#b3lyp/svp scf=(tight,noincore,xqc) Test 
#IOP(5/87=12) Density=Current Pop=(MK,readradii) iop(6/33=2) iop(6/42=6)

holoCaM.loop2.water2.frame123 

   -2  1 
C        103.15469       93.10366      -10.05116
C        104.31906       93.85435       -9.46534
O        104.68776       93.62242       -8.32374
H        102.36264       93.81560      -10.36582
H        103.49824       92.54213      -10.94843
H        102.72961       92.37987       -9.32589
N        104.97183       94.75608      -10.24060
C        106.18293       95.46919       -9.84939
C        105.97664       96.47578       -8.72024
O        105.09738       97.31927       -8.82630
C        106.73110       96.19784      -11.08632
C        107.99201       96.92011      -10.76106
O        108.07550       98.11840      -10.97343
O        109.01661       96.25353      -10.19455
H        104.61887       94.88459      -11.20331
H        106.95131       94.72272       -9.54797
H        105.97935       96.91545      -11.48390
H        106.94961       95.45016      -11.87706
N        106.84065       96.49627       -7.65561
C        106.79658       97.48584       -6.58053
C        108.08405       98.32161       -6.44209
O        108.06283       99.23631       -5.62982
C        106.52741       96.75817       -5.25773
H        107.57441       95.77938       -7.60968
H        105.96333       98.19901       -6.76021
H        107.35157       96.04401       -5.03705
H        106.44898       97.47904       -4.41600
H        105.57559       96.18941       -5.32029
N        109.24207       98.05881       -7.13094
C        110.50000       98.80654       -6.91455
C        111.17086       99.33483       -8.18938
O        112.15379      100.05343       -8.07076
C        111.49530       97.93282       -6.12275
C        111.88340       96.65609       -6.81153
O        111.42861       96.36073       -8.04070
O        112.57056       95.84023       -6.21857
H        109.25182       97.24674       -7.75638
H        110.29546       99.69669       -6.28166
H        111.01025       97.66006       -5.16031
H        112.41756       98.50772       -5.89057
N        110.71512       99.02390       -9.43070
C        111.28652       99.52717      -10.67087
C        112.71026       99.07342      -10.92121
O        113.57321       99.92021      -11.10286
H        109.89817       98.42203       -9.50851
H        111.22651      100.63708      -10.67740
H        110.67332       99.15327      -11.52005
N        113.01442       97.74633      -10.99736
C        114.33776       97.22779      -11.35740
C        114.28566       96.35486      -12.62232
O        115.29534       95.75546      -12.96511
C        114.96499       96.48028      -10.15634
C        114.24726       95.23576       -9.70746
N        114.72706       94.51787       -8.66764
O        113.23894       94.86197      -10.27798
H        112.26008       97.07115      -10.80851
H        115.03886       98.06290      -11.57644
H        115.01969       97.18306       -9.29655
H        116.00467       96.18982      -10.42327
H        115.57965       94.81380       -8.17098
H        114.24552       93.66116       -8.36102
N        113.16007       96.27902      -13.39403
C        113.05159       95.51221      -14.63024
C        112.96160       94.00081      -14.47057
O        112.82406       93.34033      -15.49117
H        112.35568       96.87056      -13.15713
H        113.89432       95.77809      -15.30390
H        112.11015       95.81626      -15.13790
N        113.02277       93.37280      -13.26215
C        112.93634       91.92068      -13.09093
C        111.82034       91.53237      -12.12738
O        111.16010       92.40190      -11.57376
C        114.30884       91.36864      -12.62180
C        115.35494       91.45467      -13.74439
O        114.74953       92.01207      -11.44914
H        113.16282       93.93915      -12.42230
H        112.68575       91.42280      -14.05303
H        114.22651       90.28609      -12.39613
H        115.15387       92.88276      -11.70529
H        115.00506       90.86968      -14.62349
H        115.52349       92.50459      -14.06155
H        116.31667       91.01948      -13.40104
N        111.57053       90.21235      -11.87934
C        110.54401       89.71317      -10.97134
C        111.24208       89.18928       -9.73228
O        112.20346       88.44051       -9.85873
C        109.70388       88.57975      -11.63567
C        109.13997       88.94719      -13.03234
C        108.57160       88.11412      -10.69435
C        108.19703       90.14787      -13.06285
H        112.16841       89.50488      -12.33316
H        109.85024       90.53200      -10.67543
H        110.37433       87.70756      -11.80621
H        108.59574       88.06529      -13.43699
H        109.98503       89.15489      -13.72295
H        107.99704       87.28524      -11.15924
H        108.98181       87.73542       -9.73576
H        107.87411       88.94545      -10.45883
H        107.84634       90.30836      -14.10443
H        107.30593       89.98285      -12.42398
H        108.73370       91.05748      -12.73734
N        110.79538       89.53022       -8.49443
C        111.47327       89.15593       -7.25882
C        110.67453       88.10434       -6.53131
O        109.60251       87.73876       -6.99654
C        111.60617       90.39526       -6.35389
C        112.21784       91.57074       -7.04604
O        111.64960       92.02062       -8.17876
O        113.13449       92.18886       -6.52933
H        109.92854       90.08263       -8.41968
H        112.47939       88.73597       -7.47821
H        112.16854       90.16037       -5.42453
H        110.58150       90.71733       -6.06127
N        111.14668       87.54524       -5.38402
C        110.39405       86.54202       -4.65205
C        109.10800       87.11695       -4.06453
O        108.08547       86.48244       -4.26785
C        111.25101       85.80916       -3.60001
C        110.41483       84.78817       -2.85719
C        109.73007       83.76800       -3.54902
C        110.28322       84.87265       -1.46178
C        108.91604       82.86891       -2.85676
C        109.47658       83.96295       -0.77288
C        108.78878       82.96628       -1.46990
H        112.08220       87.81849       -5.04275
H        110.11213       85.74874       -5.37978
H        111.70336       86.52210       -2.88636
H        112.08843       85.29319       -4.11867
H        109.80533       83.67375       -4.62440
H        110.79831       85.64706       -0.90734
H        108.37909       82.10028       -3.39798
H        109.37850       84.03683        0.30174
H        108.15573       82.27029       -0.93595
N        109.03155       88.27416       -3.32722
C        107.76879       88.78200       -2.80027
C        106.74523       89.12451       -3.87613
O        105.58779       89.33051       -3.53755
C        108.16505       90.05945       -2.05265
C        109.59023       89.75301       -1.63967
C        110.13757       89.10167       -2.90643
H        107.37901       88.00145       -2.10818
H        108.23475       90.90417       -2.77800
H        107.46880       90.35276       -1.23803
H        110.17148       90.62917       -1.28302
H        109.55853       88.98389       -0.83401
H        110.32388       89.86827       -3.68988
H        111.06528       88.55594       -2.66748
N        107.10741       89.22278       -5.18965
C        106.18067       89.53006       -6.27300
C        105.69122       88.24746       -6.92708
O        104.64375       88.27318       -7.55629
C        106.87665       90.42197       -7.32090
C        107.37428       91.74342       -6.70807
C        108.21039       92.55991       -7.65178
O        108.43548       92.18597       -8.79086
O        108.75787       93.70615       -7.21289
H        108.09289       89.07939       -5.44655
H        105.29349       90.06303       -5.86386
H        106.18913       90.64082       -8.16752
H        107.74523       89.85538       -7.72154
H        108.01520       91.53063       -5.82769
H        106.50239       92.34676       -6.37626
N        106.39878       87.08698       -6.81563
C        105.97337       85.80846       -7.33702
H        104.98251       85.86136       -7.82964
H        106.72757       85.44069       -8.06358
H        105.91314       85.08421       -6.49549
H        107.30187       87.09277       -6.34156
Ca       111.39706       94.19196       -8.46932
O        110.44751       95.38592      -12.39132
H        110.11263       95.37545      -13.32146
H        110.44271       96.34508      -12.14926
O        108.50819       93.35480      -11.43398
H        107.79352       92.69976      -11.23630
H        108.47363       93.46831      -12.41657

Ca 1.0



