%chk=holoCaM.loop1.water2.frame431.chk
%nprocshared=20
%mem=10GB
%nosave
#b3lyp/svp scf=(tight,noincore,xqc) Test 
#IOP(5/87=12) Density=Current Pop=(MK,readradii) iop(6/33=2) iop(6/42=6)

holoCaM.loop1.water2.frame431 

   0  1 
C        -14.95096        9.97379       48.72416
C        -15.42853       11.31671       49.18000
O        -16.28109       11.37803       50.05377
H        -13.86690        9.88023       48.94215
H        -15.49494        9.16332       49.25537
H        -15.11996        9.86479       47.63277
N        -14.92629       12.44768       48.60978
C        -15.32130       13.78650       49.01706
C        -16.15639       14.40705       47.90587
O        -15.68343       14.57891       46.79167
C        -14.06725       14.58639       49.39529
C        -14.34788       15.94902       49.94956
O        -13.31860       16.69159       50.37953
O        -15.48252       16.38448       50.03858
H        -14.24442       12.35390       47.84087
H        -15.94435       13.72559       49.93776
H        -13.39687       14.68521       48.51536
H        -13.52803       14.02094       50.18733
N        -17.46771       14.66354       48.15439
C        -18.46917       15.00148       47.14937
C        -18.42509       16.47566       46.76627
O        -18.44079       16.77694       45.58158
C        -19.87213       14.58558       47.67103
C        -19.91689       13.06599       47.98572
C        -21.28383       12.59849       48.50301
C        -21.25872       11.13613       49.00012
N        -20.95836       10.17140       47.94076
H        -17.80317       14.45854       49.10251
H        -18.31276       14.37999       46.23847
H        -20.63396       14.81282       46.89349
H        -20.12312       15.16299       48.58814
H        -19.17316       12.82129       48.77126
H        -19.65203       12.49855       47.06880
H        -22.05565       12.72506       47.71393
H        -21.56611       13.23150       49.37177
H        -22.25403       10.89423       49.43385
H        -20.50493       11.03295       49.80961
H        -20.99188        9.20733       48.34586
H        -21.66857       10.24113       47.17716
H        -19.99857       10.32308       47.55792
N        -18.35761       17.44728       47.72044
C        -18.32809       18.88564       47.43221
C        -16.90166       19.39760       47.25106
O        -16.63974       19.96012       46.19593
C        -19.20381       19.70348       48.42604
C        -19.12727       19.23563       49.85090
O        -20.12264       18.74879       50.36592
O        -17.96222       19.15841       50.50881
H        -18.24743       17.13815       48.69523
H        -18.80766       19.07796       46.44463
H        -20.26501       19.55682       48.11992
H        -18.98777       20.78921       48.33977
N        -15.91636       19.21019       48.17489
C        -14.53426       19.63365       47.95058
C        -14.02905       20.50595       49.07109
O        -13.64855       21.64317       48.83201
H        -16.13212       18.69221       49.03445
H        -14.42091       20.17711       46.98750
H        -13.88931       18.73134       47.90183
N        -13.99619       20.01114       50.33469
C        -13.54580       20.75183       51.50610
C        -12.45169       20.00846       52.27448
O        -12.12260       20.42976       53.37518
C        -14.77504       21.10302       52.37643
C        -15.65609       19.97252       52.84023
O        -15.39055       18.68523       52.55458
O        -16.65901       20.24229       53.47867
H        -14.34389       19.05457       50.47409
H        -13.11196       21.73537       51.22036
H        -15.42025       21.77427       51.76875
H        -14.43920       21.67636       53.26731
N        -11.80431       18.92586       51.74563
C        -10.76517       18.18402       52.44802
C        -11.26915       17.38587       53.63875
O        -10.44653       16.76302       54.29422
H        -12.00618       18.64002       50.78018
H         -9.97205       18.89065       52.77672
H        -10.30154       17.45673       51.74605
N        -12.58854       17.35426       53.98628
C        -13.10914       16.64413       55.14749
C        -14.19821       15.66276       54.74707
O        -14.96710       15.92869       53.83414
C        -13.64633       17.64147       56.20062
C        -12.52066       18.48607       56.81592
O        -14.65346       18.46445       55.66852
H        -13.26639       17.87463       53.42349
H        -12.30421       16.06484       55.65188
H        -14.09057       17.05995       57.03855
H        -14.22083       19.15987       55.10833
H        -12.94081       19.15911       57.59268
H        -11.76694       17.82468       57.29400
H        -12.01601       19.10293       56.04279
N        -14.34187       14.51499       55.46447
C        -15.35592       13.49656       55.22755
C        -16.28720       13.47044       56.43527
O        -15.82917       13.35805       57.56284
C        -14.64561       12.13787       54.93538
C        -13.95448       12.23333       53.54356
C        -15.62392       10.94846       54.97373
C        -13.10358       11.02052       53.16769
H        -13.69521       14.35053       56.25142
H        -15.97569       13.73721       54.33569
H        -13.88654       11.95924       55.72868
H        -13.28220       13.11706       53.52327
H        -14.72831       12.37731       52.75481
H        -16.38817       11.04307       54.18362
H        -15.09104        9.98710       54.83275
H        -16.12286       10.87873       55.96214
H        -12.29463       10.87658       53.91346
H        -13.71214       10.09748       53.09106
H        -12.64306       11.19580       52.17158
N        -17.63354       13.54649       56.23602
C        -18.65314       13.54375       57.27734
C        -19.28920       12.16625       57.33104
O        -18.80614       11.26640       56.66222
C        -19.71051       14.64716       56.97764
C        -19.07960       16.04762       56.93786
O        -20.41729       14.35357       55.79129
H        -17.97587       13.53611       55.27379
H        -18.20401       13.74122       58.27476
H        -20.45912       14.68293       57.79506
H        -20.03345       14.87085       55.03838
H        -19.85656       16.81191       56.71818
H        -18.60515       16.28961       57.91129
H        -18.30894       16.08533       56.14640
N        -20.35815       11.91240       58.13584
C        -20.98170       10.59380       58.21896
C        -21.59068       10.19191       56.87617
O        -21.32352        9.09324       56.41324
C        -22.03942       10.55618       59.34472
C        -22.49430        9.11356       59.60473
O        -21.46859       11.05742       60.52705
H        -20.72642       12.67451       58.72285
H        -20.19316        9.86211       58.50827
H        -22.90527       11.19322       59.04617
H        -22.21851       11.34963       61.10850
H        -23.23829        9.09128       60.42724
H        -22.95101        8.66488       58.69918
H        -21.62149        8.49328       59.90950
N        -22.40830       11.04273       56.18789
C        -22.98768       10.73312       54.87268
C        -21.94674       10.54550       53.76473
O        -22.34803       10.17081       52.67158
C        -23.97791       11.84841       54.45946
C        -25.24599       11.79898       55.32455
C        -26.14291       13.02273       55.10176
C        -27.51311       12.88904       55.79331
N        -27.40578       12.59690       57.22462
H        -22.62381       11.95341       56.62332
H        -23.54803        9.77393       54.94627
H        -24.30584       11.72375       53.40286
H        -23.46248       12.83145       54.54270
H        -24.97117       11.76621       56.39869
H        -25.79913       10.86821       55.06740
H        -26.33110       13.16946       54.01569
H        -25.61148       13.92137       55.48626
H        -28.09732       12.07955       55.30238
H        -28.06706       13.84356       55.65113
H        -27.02169       11.63529       57.37050
H        -26.80018       13.30301       57.70106
H        -28.36136       12.62125       57.64787
N        -20.61248       10.75889       53.95938
C        -19.59429       10.53278       52.93459
C        -18.62872        9.41447       53.32701
O        -17.82351        9.03203       52.48874
C        -18.79043       11.82886       52.71540
C        -19.66468       13.02957       52.34309
C        -18.86228       14.29901       52.29537
O        -18.25906       14.69736       53.27427
O        -18.84668       15.04686       51.19114
H        -20.29621       11.11110       54.86334
H        -20.07390       10.22239       51.98302
H        -18.01731       11.67573       51.93375
H        -18.28198       12.06084       53.66786
H        -20.45603       13.17147       53.10734
H        -20.14997       12.84847       51.36293
N        -18.62586        8.85803       54.57382
C        -17.73009        7.80160       54.99429
H        -17.09480        8.17196       55.82700
H        -18.33010        6.94341       55.36471
H        -17.07329        7.44832       54.17405
H        -19.26604        9.20029       55.29126
Ca       -17.87189       17.07086       51.30472
O        -20.23609       17.29007       53.42436
H        -20.72255       16.86201       52.67625
H        -19.92534       18.15528       53.05636
O        -17.65815       17.95389       54.60425
H        -16.93257       17.64778       55.20123
H        -18.16579       18.60674       55.14888

Ca 1.0



