%chk=holoCaM.loop3.water1.frame162.chk
%nprocshared=20
%mem=10GB
%nosave
#b3lyp/svp scf=(tight,noincore,xqc) Test 
#IOP(5/87=12) Density=Current Pop=(MK,readradii) iop(6/33=2) iop(6/42=6)

holoCaM.loop3.water1.frame162 

   0  1 
C         99.73218      105.98274       81.92238
C         99.35578      105.06744       83.04535
O         99.87498      105.23447       84.13791
H        100.82346      105.90313       81.73617
H         99.19128      105.72161       80.98912
H         99.48363      107.02800       82.20046
N         98.44075      104.07721       82.86279
C         98.06592      103.17177       83.93726
C         99.27631      102.31989       84.31699
O         99.82622      101.67286       83.43597
C         96.82609      102.33202       83.52227
C         96.23237      101.62825       84.70627
O         96.89216      101.51615       85.72183
O         94.92363      101.31971       84.77845
H         97.98482      103.98156       81.94188
H         97.73863      103.79045       84.80464
H         97.03322      101.62334       82.69115
H         96.05046      103.04361       83.17203
N         99.75856      102.28803       85.60119
C        100.99918      101.59432       85.96417
C        100.75692      100.19839       86.53125
O        101.71950       99.45412       86.66198
C        101.84339      102.43541       86.94378
C        102.07036      103.89976       86.52670
C        102.81168      104.07221       85.19462
C        103.05943      105.56484       84.91652
N        103.74261      105.76119       83.63964
H         99.24046      102.78466       86.34187
H        101.59591      101.43650       85.03887
H        102.82763      101.93932       87.09572
H        101.31897      102.45890       87.92432
H        102.66664      104.38257       87.33145
H        101.09185      104.42355       86.47246
H        102.20510      103.64141       84.36919
H        103.78740      103.54213       85.23887
H        103.67824      105.99690       85.73397
H        102.09411      106.11440       84.89773
H        103.88897      106.78543       83.48651
H        104.67261      105.28369       83.65306
H        103.15948      105.38329       82.85804
N         99.50042       99.74709       86.80641
C         99.17181       98.34563       87.05209
C         98.46513       97.76344       85.81880
O         98.19884       96.57036       85.80722
C         98.37002       98.16823       88.37154
C         97.08849       98.95790       88.43685
O         96.52526       99.36038       87.29382
O         96.71021       99.43740       89.49358
H         98.71867      100.40102       86.72005
H        100.10238       97.74624       87.16192
H         99.01424       98.46746       89.22655
H         98.12234       97.09387       88.51200
N         98.21259       98.53136       84.70969
C         97.76123       98.01032       83.43218
C         96.36176       97.44094       83.37295
O         96.02112       96.96645       82.29724
H         98.45703       99.52834       84.70092
H         98.47931       97.22511       83.10860
H         97.80764       98.82963       82.68040
N         95.49447       97.40370       84.43037
C         94.21774       96.69731       84.31056
C         93.23671       97.34969       83.32828
O         92.26925       96.69247       82.97330
C         93.57442       96.40182       85.68977
C         92.97817       97.57895       86.41416
N         92.40617       97.41423       87.62769
O         92.98417       98.68127       85.90611
H         95.78080       97.78438       85.34255
H         94.47387       95.69317       83.90241
H         94.34509       95.93426       86.34102
H         92.75554       95.66586       85.54470
H         92.38469       96.48879       88.07869
H         91.97884       98.21602       88.11509
N         93.40768       98.62405       82.85490
C         92.54244       99.23252       81.84658
C         91.72220      100.40658       82.35766
O         91.03949      101.01805       81.54666
H         94.19158       99.19486       83.20123
H         91.82382       98.49455       81.42941
H         93.18742       99.57186       81.00755
N         91.67657      100.74212       83.67867
C         90.82863      101.79110       84.23556
C         91.64243      102.73521       85.09766
O         92.38228      102.26856       85.95371
C         89.72268      101.20165       85.13056
C         88.77233      100.29233       84.39362
C         89.13601       98.96973       84.09142
C         87.49507      100.75328       84.03053
C         88.23246       98.12085       83.44429
C         86.59894       99.90762       83.37263
C         86.96278       98.58529       83.08249
O         86.10113       97.75395       82.46274
H         92.22371      100.19191       84.34279
H         90.30899      102.36138       83.43215
H         89.14595      102.07070       85.52151
H         90.13489      100.66685       86.01438
H         90.10919       98.58901       84.37526
H         87.19328      101.77018       84.25016
H         88.51737       97.09867       83.23010
H         85.62079      100.28022       83.09492
H         85.21163       98.03533       82.20435
N         91.47604      104.08200       84.99379
C         92.16318      105.04940       85.84159
C         91.15799      105.74323       86.75149
O         90.31195      106.48874       86.27641
C         92.98970      106.01303       84.92894
C         94.29310      105.27528       84.51866
C         93.29996      107.37799       85.57268
C         95.18103      106.04141       83.54180
H         90.79890      104.44514       84.30421
H         92.87392      104.53968       86.52707
H         92.37791      106.24949       84.02960
H         94.03094      104.30305       84.04886
H         94.89391      105.06254       85.43187
H         92.36588      107.91064       85.84323
H         93.93358      107.27080       86.46253
H         93.81198      108.04670       84.85331
H         96.07687      105.43196       83.31129
H         94.63058      106.24229       82.60066
H         95.54519      106.99121       83.98136
N         91.21931      105.53280       88.10260
C         90.41264      106.25795       89.08216
C         90.89338      107.70015       89.18312
O         91.84260      108.05864       88.50721
C         90.52596      105.57459       90.46587
O         91.85303      105.58040       90.91553
H         91.89135      104.83623       88.45780
H         89.34289      106.22004       88.78231
H         90.17149      104.52354       90.37751
H         89.88290      106.10107       91.20510
H         91.84820      105.15591       91.81273
N         90.30720      108.58139       90.03971
C         90.82570      109.93018       90.26024
C         92.22264      109.87351       90.85931
O         93.11753      110.53183       90.34887
C         89.90393      110.70991       91.20143
H         89.48163      108.27348       90.57537
H         90.84689      110.48952       89.29740
H         89.82830      110.21439       92.19203
H         90.29513      111.74117       91.34237
H         88.88951      110.78317       90.75491
N         92.47648      109.07439       91.93637
C         93.78170      108.95310       92.58417
C         94.87617      108.60981       91.59044
O         95.87803      109.31110       91.56125
C         93.72203      107.89363       93.69119
H         91.69757      108.50460       92.30246
H         94.03980      109.92228       93.06699
H         94.70308      107.82041       94.20758
H         92.95493      108.17758       94.44356
H         93.45948      106.89809       93.27353
N         94.73093      107.58097       90.70808
C         95.72079      107.26953       89.67839
C         96.00586      108.50247       88.83236
O         97.16018      108.89507       88.73594
C         95.24507      106.10876       88.77585
C         95.17626      104.76266       89.50936
C         94.79922      103.65934       88.56139
O         95.50789      103.40630       87.60011
O         93.68595      102.93400       88.77459
H         93.85676      107.04011       90.73926
H         96.67539      106.95609       90.15733
H         95.97003      106.00271       87.93734
H         94.24292      106.33747       88.36352
H         94.43142      104.81213       90.33024
H         96.16916      104.52280       89.94502
N         94.99488      109.18475       88.22945
C         95.18304      110.39078       87.44964
H         96.25155      110.67677       87.36124
H         94.77007      110.23858       86.43104
H         94.63617      111.22759       87.93438
H         94.03435      108.85386       88.35227
Ca        94.65279      100.49929       86.85222
O         93.51284      100.00841       89.64125
H         93.30916       99.11166       90.00733
H         92.71012      100.54978       89.84805

Ca 1.0



