%chk=holoCaM.loop3.water2.frame64.chk
%nprocshared=20
%mem=10GB
%nosave
#b3lyp/svp scf=(tight,noincore,xqc) Test 
#IOP(5/87=12) Density=Current Pop=(MK,readradii) iop(6/33=2) iop(6/42=6)

holoCaM.loop3.water2.frame64 

   0  1 
C         80.08146      -19.53437      109.51527
C         79.54450      -18.63777      110.59511
O         79.33648      -19.10326      111.70592
H         81.06154      -19.94977      109.83078
H         79.37234      -20.36628      109.32648
H         80.23140      -18.97921      108.56407
N         79.30918      -17.32392      110.33276
C         78.82853      -16.35939      111.31130
C         77.51611      -15.79615      110.78965
O         77.44937      -14.63799      110.40085
C         79.93219      -15.29729      111.47994
C         79.65212      -14.26647      112.53068
O         78.53970      -14.31137      113.28464
O         80.46295      -13.37601      112.71045
H         79.50106      -16.97047      109.38172
H         78.65395      -16.83314      112.30357
H         80.09859      -14.78376      110.50824
H         80.87566      -15.80981      111.77054
N         76.43932      -16.62116      110.68222
C         75.20974      -16.24680      109.98999
C         74.49532      -15.07265      110.64310
O         74.28237      -14.08385      109.95402
C         74.28532      -17.46815      109.77812
C         74.97913      -18.66050      109.05721
C         75.79357      -18.29662      107.79635
C         74.96112      -17.63987      106.68591
N         75.81578      -17.25724      105.56106
H         76.54406      -17.58365      111.03453
H         75.49128      -15.90739      108.97138
H         73.42402      -17.13496      109.15985
H         73.88114      -17.83177      110.74788
H         74.21017      -19.42179      108.80474
H         75.68817      -19.15016      109.75703
H         76.25903      -19.22313      107.39491
H         76.62912      -17.62268      108.08319
H         74.45646      -16.72740      107.06662
H         74.17981      -18.35110      106.34054
H         76.29375      -18.09795      105.16346
H         75.22908      -16.81367      104.81822
H         76.53298      -16.56349      105.87775
N         74.14747      -15.06881      111.96533
C         73.57776      -13.87963      112.62026
C         74.44525      -12.65565      112.37493
O         73.91312      -11.57918      112.14191
C         73.38286      -14.04099      114.15001
C         74.67943      -14.29052      114.86726
O         75.16364      -13.45823      115.61699
O         75.27551      -15.47475      114.68443
H         74.35135      -15.91161      112.51979
H         72.57244      -13.68233      112.18666
H         72.68186      -14.87336      114.37317
H         72.92681      -13.10210      114.53617
N         75.79878      -12.77446      112.34661
C         76.68379      -11.66842      112.06361
C         76.77039      -10.73565      113.23813
O         76.51880       -9.54864      113.09261
H         76.22138      -13.70254      112.48403
H         76.37868      -11.15705      111.12489
H         77.71045      -12.06490      111.90248
N         77.23432      -11.22083      114.42264
C         77.62345      -10.38084      115.54796
C         79.14263      -10.23932      115.58492
O         79.65793       -9.60409      116.49371
C         77.09465      -10.96469      116.88380
C         77.67465      -12.30799      117.29468
N         77.33624      -12.84758      118.48690
O         78.46103      -12.90501      116.57566
H         77.47182      -12.22234      114.46173
H         77.19938       -9.35924      115.43276
H         75.98768      -11.04740      116.83789
H         77.34595      -10.24220      117.69065
H         76.68724      -12.36156      119.12160
H         77.73854      -13.74776      118.78368
N         79.92358      -10.80292      114.61777
C         81.36871      -10.80660      114.63156
C         81.89763      -11.69460      115.73000
O         82.78896      -11.27202      116.44885
H         79.49275      -11.27462      113.81261
H         81.77172       -9.77191      114.68373
H         81.71851      -11.25254      113.67560
N         81.43350      -12.97517      115.85734
C         81.98757      -13.96427      116.78286
C         81.48289      -15.36935      116.45867
O         80.36280      -15.53736      115.99724
C         81.66341      -13.75092      118.28945
C         82.03659      -12.44045      118.93114
C         81.20015      -11.32398      118.78373
C         83.18159      -12.33589      119.74021
C         81.50967      -10.11680      119.41505
C         83.49148      -11.12716      120.37183
C         82.65465      -10.01295      120.21117
O         82.93463       -8.84425      120.82225
H         80.71673      -13.28076      115.18611
H         83.09020      -13.95934      116.63256
H         82.20698      -14.55590      118.83456
H         80.58420      -13.92882      118.49052
H         80.30373      -11.39788      118.18610
H         83.83511      -13.18772      119.88325
H         80.85348       -9.26472      119.29163
H         84.37762      -11.05996      120.99057
H         83.70897       -8.73407      121.39228
N         82.25975      -16.43602      116.79118
C         81.85510      -17.83333      116.69367
C         81.95381      -18.44221      118.08132
O         83.00552      -18.35925      118.70009
C         82.75761      -18.57696      115.66211
C         82.37660      -18.10464      114.23211
C         82.61523      -20.11228      115.78038
C         83.28869      -18.64371      113.12955
H         83.20070      -16.24717      117.16956
H         80.80462      -17.93750      116.34531
H         83.81999      -18.32607      115.87736
H         82.42515      -16.99654      114.18086
H         81.32902      -18.41115      114.00889
H         83.29090      -20.63811      115.07842
H         82.92006      -20.45822      116.78980
H         81.56988      -20.43244      115.59144
H         84.33314      -18.31214      113.30581
H         83.25585      -19.74947      113.06638
H         82.94805      -18.24826      112.14917
N         80.90259      -19.14405      118.59165
C         80.95465      -19.85748      119.86294
C         81.12073      -21.34339      119.60118
O         81.17641      -21.74083      118.45142
C         79.68090      -19.55986      120.67273
O         78.54862      -20.00728      119.97541
H         80.06136      -19.26304      118.00842
H         81.83662      -19.53451      120.45718
H         79.61097      -18.46199      120.83919
H         79.73317      -20.07066      121.65899
H         77.76341      -19.75810      120.52836
N         81.23778      -22.22879      120.62805
C         81.39623      -23.66708      120.42086
C         80.20411      -24.24766      119.68239
O         80.39776      -24.95803      118.70561
C         81.56260      -24.38034      121.76473
H         81.21693      -21.86505      121.59257
H         82.32471      -23.86089      119.83656
H         81.71234      -25.46919      121.59851
H         82.45769      -23.98425      122.29042
H         80.67017      -24.23115      122.40808
N         78.93595      -23.94765      120.08225
C         77.72747      -24.45401      119.43443
C         77.74689      -24.20592      117.93753
O         77.56978      -25.14564      117.17535
C         76.49211      -23.78597      120.05395
H         78.82843      -23.29777      120.87729
H         77.65002      -25.54973      119.61003
H         75.56424      -24.17764      119.58621
H         76.45222      -23.99569      121.14407
H         76.52642      -22.68355      119.91024
N         77.99870      -22.96214      117.45227
C         78.07408      -22.63984      116.02768
C         79.10739      -23.50446      115.33063
O         78.75441      -24.20742      114.39333
C         78.41585      -21.14463      115.86799
C         77.22464      -20.28702      116.30415
C         77.56789      -18.83982      116.45403
O         78.30912      -18.17507      115.55107
O         77.14335      -18.23155      117.42266
H         78.17782      -22.21580      118.14194
H         77.08866      -22.83396      115.54446
H         78.63929      -20.89577      114.80618
H         79.31599      -20.91674      116.47538
H         76.79772      -20.62451      117.27370
H         76.42645      -20.39985      115.53865
N         80.39898      -23.52298      115.74681
C         81.40354      -24.35738      115.12998
H         82.37329      -24.22600      115.65583
H         81.10366      -25.42460      115.20196
H         81.53040      -24.07310      114.06470
H         80.67736      -22.93938      116.53859
Ca        77.34387      -16.26508      114.94385
O         75.34580      -15.65983      117.80200
H         74.44407      -15.83229      117.43126
H         75.22605      -15.71765      118.78276
O         78.87098      -16.26086      119.04337
H         77.94914      -16.12148      118.71186
H         78.86662      -15.86410      119.95031

Ca 1.0



