%chk=holoCaM.loop4.water3.frame265.chk
%nprocshared=20
%mem=10GB
%nosave
#b3lyp/svp scf=(tight,noincore,xqc) Test 
#IOP(5/87=12) Density=Current Pop=(MK,readradii) iop(6/33=2) iop(6/42=6)

holoCaM.loop4.water3.frame265 

   -3  1 
C         39.89344      -10.43256       86.17731
C         39.13177      -11.12802       85.08312
O         39.02368      -10.56286       84.01254
H         40.90955      -10.17531       85.80035
H         39.38004       -9.49553       86.47266
H         40.01993      -11.08268       87.06767
N         38.63401      -12.38449       85.25576
C         38.09819      -13.20133       84.16556
C         36.73679      -13.81140       84.49572
O         36.59294      -14.42923       85.54138
C         39.14327      -14.29419       83.91668
C         38.75073      -15.34305       82.92475
O         38.72774      -16.50714       83.28479
O         38.44888      -15.08323       81.64531
H         38.76314      -12.83564       86.17490
H         38.00604      -12.61904       83.22390
H         39.35127      -14.81123       84.87916
H         40.08599      -13.81395       83.57919
N         35.71508      -13.73187       83.58512
C         34.38862      -14.33503       83.75439
C         34.10036      -15.41020       82.68157
O         33.17647      -16.18819       82.87349
C         33.29428      -13.21006       83.68364
C         33.65831      -12.02933       84.62545
C         31.88012      -13.75484       83.98149
C         32.62431      -10.89899       84.65652
H         35.88999      -13.21122       82.72064
H         34.34387      -14.82871       84.75068
H         33.27871      -12.80233       82.64635
H         34.60953      -11.58068       84.26543
H         33.81332      -12.39368       85.66236
H         31.82906      -14.17652       85.00649
H         31.11485      -12.96132       83.87079
H         31.57214      -14.52354       83.24898
H         31.68694      -11.23657       85.14528
H         33.01959      -10.05398       85.25796
H         32.40079      -10.53407       83.63130
N         34.79024      -15.46411       81.50115
C         34.42680      -16.32119       80.36459
C         35.53308      -17.29034       79.93861
O         35.30310      -18.05143       79.00812
C         33.93159      -15.45144       79.17244
C         34.84461      -14.35867       78.66146
O         36.01679      -14.07235       79.24631
O         34.47042      -13.66378       77.73289
H         35.56871      -14.81817       81.36852
H         33.56152      -16.96863       80.63436
H         32.99015      -14.94921       79.48505
H         33.67969      -16.12099       78.32041
N         36.71614      -17.38786       80.60893
C         37.72293      -18.40712       80.32645
C         38.52144      -18.23961       79.03908
O         39.30248      -19.13302       78.74363
H         36.85737      -16.80288       81.43608
H         37.21243      -19.39591       80.31224
H         38.45674      -18.42702       81.15859
N         38.38664      -17.16312       78.21466
C         39.02581      -17.08570       76.89403
C         40.51451      -16.68356       76.87934
O         41.04795      -16.54209       75.78689
C         38.18527      -16.17839       75.97198
C         38.14218      -14.73930       76.37585
O         38.82069      -14.29558       77.44795
O         37.47078      -13.96099       75.72115
H         37.69548      -16.44402       78.47094
H         38.94674      -18.08639       76.41264
H         37.14148      -16.56295       75.96490
H         38.57743      -16.23801       74.93390
N         41.26710      -16.53117       78.00972
C         42.69962      -16.22146       77.97171
C         43.04848      -14.76369       77.68474
O         44.21353      -14.48917       77.43297
H         40.84480      -16.75833       78.91556
H         43.18429      -16.88227       77.21961
H         43.16087      -16.46244       78.95298
N         42.11974      -13.77054       77.76291
C         42.38580      -12.36363       77.45702
C         41.43621      -11.43325       78.23362
O         40.29938      -11.80343       78.48622
C         42.30050      -12.14861       75.92370
C         41.01519      -12.75911       75.32484
C         40.85478      -12.56064       73.83969
N         39.70683      -12.95344       73.23985
O         41.74092      -12.04622       73.17349
H         41.16045      -14.03099       78.00439
H         43.41428      -12.08800       77.78527
H         43.17303      -12.63875       75.43768
H         42.35370      -11.05924       75.70047
H         40.14130      -12.30627       75.83055
H         41.00477      -13.85686       75.50326
H         38.94609      -13.37246       73.79159
H         39.56292      -12.82061       72.22875
N         41.84639      -10.18514       78.62220
C         40.97980       -9.20395       79.28796
C         40.27494       -8.36408       78.24849
O         40.92805       -7.79865       77.38215
C         41.78177       -8.30393       80.29433
C         41.07582       -6.96541       80.61951
C         42.00064       -9.04838       81.62047
H         42.78486       -9.87161       78.32805
H         40.18736       -9.71253       79.87537
H         42.76318       -8.03489       79.84608
H         40.99832       -6.32844       79.71199
H         40.05759       -7.13405       81.02447
H         41.66158       -6.38088       81.36121
H         42.50206      -10.02192       81.45852
H         42.62202       -8.43513       82.30899
H         41.02047       -9.22572       82.12101
N         38.92747       -8.16311       78.36084
C         38.17022       -7.26627       77.50578
C         37.70993       -6.03921       78.30020
O         38.08120       -5.88866       79.45400
C         37.00645       -8.01672       76.80706
C         35.79079       -8.30590       77.65992
N         35.76389       -9.32940       78.53681
O         34.78582       -7.63007       77.50541
H         38.42191       -8.61053       79.13582
H         38.82332       -6.89085       76.68867
H         37.36622       -8.94850       76.31752
H         36.66060       -7.36390       75.98046
H         36.57574       -9.94328       78.64268
H         34.90876       -9.53207       79.07739
N         36.90761       -5.10917       77.71517
C         36.43327       -3.87106       78.33986
C         35.62699       -4.10161       79.61822
O         35.83332       -3.37826       80.58123
C         35.53094       -3.14159       77.33281
C         35.06556       -1.81393       77.85837
C         35.95036       -0.72676       77.93234
C         33.73825       -1.65885       78.28173
C         35.50179        0.50922       78.40571
C         33.29671       -0.42970       78.76932
C         34.17474        0.66233       78.82468
O         33.75294        1.85949       79.27618
H         36.62447       -5.28650       76.74130
H         37.30881       -3.22273       78.57237
H         34.65958       -3.80151       77.12636
H         36.05581       -2.98033       76.36619
H         36.97899       -0.83277       77.60786
H         33.05031       -2.49501       78.24741
H         36.18518        1.34811       78.44352
H         32.27144       -0.32902       79.10008
H         32.83985        2.00394       79.56274
N         34.63402       -5.03117       79.66472
C         33.83238       -5.32683       80.85712
C         34.68177       -5.91428       81.98928
O         34.31025       -5.76505       83.14508
C         32.69250       -6.27697       80.43658
C         31.75097       -6.73669       81.55257
C         30.63174       -7.53132       80.94070
O         29.75425       -6.96518       80.30711
O         30.62947       -8.87499       81.02520
H         34.44229       -5.55351       78.80016
H         33.37140       -4.37926       81.21728
H         33.13266       -7.18880       79.97151
H         32.09959       -5.74133       79.66211
H         31.32481       -5.88228       82.12202
H         32.32309       -7.38242       82.25249
N         35.86230       -6.54084       81.72683
C         36.78765       -7.04427       82.74329
C         37.94175       -6.06811       82.97302
O         38.80475       -6.34894       83.79333
C         37.37740       -8.36643       82.23931
C         36.31866       -9.46269       82.05506
C         36.82592      -10.62708       81.25584
O         35.98027      -11.62521       80.95133
O         37.96000      -10.64533       80.80621
H         36.15168       -6.62965       80.74477
H         36.27258       -7.19201       83.71903
H         38.16298       -8.71773       82.92641
H         37.86484       -8.14886       81.26832
H         35.45254       -9.06178       81.49217
H         35.96861       -9.81026       83.05045
N         38.01507       -4.89634       82.29173
C         39.07171       -3.92709       82.44056
H         40.02914       -4.35459       82.08092
H         38.83303       -3.03198       81.82233
H         39.15418       -3.60991       83.49928
H         37.28783       -4.67152       81.62742
Ca        37.98660      -13.51102       80.15598
O         40.71692      -14.68524       80.31857
H         40.65422      -15.56778       80.75877
H         41.55235      -14.29937       80.67429
O         40.47278      -12.07779       81.39656
H         39.84381      -11.73476       82.07186
H         41.28212      -12.30420       81.91686
O         37.32045      -12.01849       77.72833
H         37.85158      -11.75436       76.93752
H         36.39144      -12.07301       77.39447

Ca 1.0



