%chk=holoCaM-CaMKII.loop1.water2.frame376.chk
%nprocshared=20
%mem=10GB
%nosave
#b3lyp/svp scf=(tight,noincore,xqc) Test 
#IOP(5/87=12) Density=Current Pop=(MK,readradii) iop(6/33=2) iop(6/42=6)

holoCaM-CaMKII.loop1.water2.frame376 

   0  1 
C         64.98554       72.17439       49.91458
C         66.18915       72.45074       50.76416
O         66.13688       73.32305       51.61795
H         64.15245       72.86322       50.16887
H         65.24760       72.31406       48.84361
H         64.65348       71.12748       50.07314
N         67.33547       71.75298       50.54773
C         68.57202       71.97077       51.28135
C         69.54934       72.64997       50.34398
O         70.57870       72.09389       49.98789
C         69.05641       70.62586       51.85728
C         70.36584       70.75487       52.57599
O         70.48463       71.59342       53.61749
O         71.33028       70.10138       52.21314
H         67.34892       71.05899       49.78360
H         68.42373       72.66868       52.13691
H         69.16126       69.88142       51.03900
H         68.29768       70.25072       52.57809
N         69.24856       73.90262       49.90571
C         70.09563       74.68950       49.02188
C         71.43121       74.98652       49.69104
O         72.45939       74.65808       49.11602
C         69.33540       75.97933       48.62688
C         70.02634       76.88663       47.59500
C         70.30611       76.17781       46.26022
C         70.78399       77.17340       45.19472
N         71.09532       76.48792       43.94049
H         68.35638       74.31583       50.22082
H         70.26195       74.10337       48.09222
H         69.12097       76.58056       49.53717
H         68.35616       75.67587       48.19137
H         70.97144       77.29809       48.00927
H         69.33208       77.73591       47.40682
H         69.37638       75.69132       45.89140
H         71.08525       75.40084       46.41113
H         71.69022       77.70877       45.55396
H         69.98160       77.92366       45.01210
H         71.37576       77.19544       43.22352
H         71.88843       75.82176       44.08617
H         70.25735       75.96758       43.59224
N         71.49233       75.58778       50.91878
C         72.75879       75.90969       51.59304
C         73.61123       74.67808       51.95257
O         74.74536       74.86449       52.36993
C         72.50040       76.81019       52.82345
C         71.70929       76.13479       53.89938
O         71.68791       74.79508       53.99721
O         71.02781       76.80367       54.65997
H         70.60293       75.85982       51.36664
H         73.34893       76.52857       50.88202
H         71.90994       77.68371       52.46299
H         73.43727       77.21143       53.26222
N         73.15860       73.40108       51.76841
C         74.00734       72.21902       51.84197
C         74.35561       71.68549       53.22053
O         75.06755       70.69170       53.25843
H         72.20846       73.25486       51.41437
H         74.93782       72.41442       51.26565
H         73.48111       71.39022       51.32272
N         73.91648       72.24048       54.38614
C         74.30047       71.69799       55.69487
C         73.81454       70.26763       55.96109
O         74.39452       69.62640       56.82703
C         73.94047       72.65844       56.85573
C         72.53077       73.18994       56.83249
O         72.33861       74.39363       56.76942
O         71.47729       72.36645       56.88873
H         73.34255       73.08815       54.34098
H         75.41165       71.62890       55.70071
H         74.61788       73.53655       56.79056
H         74.13719       72.15773       57.82897
N         72.77784       69.69777       55.28486
C         72.35036       68.31290       55.46984
C         70.99937       68.18775       56.14723
O         70.49443       67.07856       56.23133
H         72.25581       70.26775       54.61288
H         73.07436       67.73181       56.08063
H         72.30473       67.83542       54.46713
N         70.38072       69.26904       56.69826
C         69.09592       69.22412       57.38529
C         68.10715       70.17492       56.72056
O         68.48691       70.97656       55.88051
C         69.28790       69.59122       58.88680
C         70.02971       68.48542       59.64037
O         70.02062       70.78054       59.03235
H         70.84954       70.17282       56.65441
H         68.65285       68.20683       57.31751
H         68.30151       69.70284       59.39086
H         69.53186       71.48476       58.54034
H         70.15657       68.77778       60.70586
H         69.44335       67.54286       59.60819
H         71.03465       68.30701       59.20352
N         66.78595       70.08600       57.04438
C         65.73096       70.92493       56.48172
C         64.97375       71.57525       57.62644
O         64.58226       70.89111       58.56004
C         64.81350       70.07939       55.55164
C         65.62715       69.69291       54.28231
C         63.54425       70.86888       55.16022
C         64.88786       68.78724       53.29907
H         66.50101       69.34982       57.70771
H         66.15047       71.73088       55.84519
H         64.48994       69.16364       56.09407
H         66.55136       69.15636       54.58343
H         65.93028       70.61848       53.74117
H         62.94978       71.12850       56.06112
H         63.80831       71.80598       54.62497
H         62.87112       70.26065       54.52520
H         65.55842       68.56085       52.44253
H         64.60532       67.83560       53.79440
H         63.98481       69.27920       52.88628
N         64.70842       72.91187       57.58340
C         64.04784       73.64924       58.65099
C         62.70988       74.18459       58.17874
O         62.34946       74.00832       57.02794
C         64.95876       74.82281       59.11009
C         66.31842       74.33137       59.61920
O         65.12103       75.77530       58.08438
H         64.97455       73.43774       56.74500
H         63.85430       72.98414       59.52001
H         64.48046       75.34816       59.96275
H         65.81373       75.45080       57.45381
H         66.85845       73.79482       58.81169
H         66.93321       75.19813       59.94345
H         66.18215       73.64384       60.47923
N         61.92224       74.87084       59.04876
C         60.67425       75.53227       58.67552
C         60.94010       76.62977       57.65848
O         60.20773       76.73658       56.68435
C         59.99483       76.14584       59.92709
C         59.54276       75.04566       60.89989
O         60.87457       77.03520       60.57006
H         62.25101       74.95490       60.02082
H         59.95857       74.79894       58.23969
H         59.08865       76.70008       59.58894
H         60.37175       77.46330       61.31069
H         59.01963       75.49939       61.76730
H         58.83702       74.35489       60.39139
H         60.40432       74.45952       61.28066
N         61.99392       77.47454       57.83126
C         62.31004       78.59824       56.95380
C         62.44215       78.13776       55.51388
O         61.78012       78.68369       54.64284
C         63.62102       79.30077       57.40779
C         63.63737       79.78377       58.87746
C         62.50754       80.76369       59.21720
C         62.56765       81.16880       60.69660
N         61.49516       82.10613       61.02636
H         62.61166       77.28487       58.63048
H         61.48481       79.34008       56.99868
H         63.80250       80.17518       56.74495
H         64.47795       78.60162       57.28525
H         64.61511       80.27827       59.06750
H         63.58309       78.92061       59.57066
H         61.52291       80.28359       59.03824
H         62.59664       81.66470       58.57269
H         63.55016       81.64060       60.91922
H         62.46369       80.25933       61.33126
H         61.55141       82.34640       62.04239
H         61.60014       82.98146       60.46389
H         60.56356       81.67114       60.83335
N         63.26315       77.10070       55.20851
C         63.44083       76.56574       53.86063
C         62.12198       76.07471       53.30534
O         61.70889       76.54400       52.25364
C         64.47941       75.42747       53.89156
C         65.84281       76.00575       54.28284
C         66.88096       74.96928       54.49546
O         68.03396       75.08892       53.84787
O         66.76422       74.12194       55.36047
H         63.76510       76.65773       55.99128
H         63.83045       77.36409       53.18776
H         64.56393       74.95034       52.89187
H         64.16078       74.65259       54.62419
H         65.78909       76.56962       55.23284
H         66.18099       76.71227       53.49264
N         61.39139       75.14607       53.97430
C         60.11196       74.67634       53.49661
H         59.40922       75.53125       53.39914
H         60.23522       74.17787       52.51257
H         59.68615       73.94832       54.21935
H         61.74483       74.77446       54.86218
Ca        69.75995       73.98185       54.65234
O         68.84662       76.19748       56.85435
H         68.27063       76.83089       57.35103
H         69.76983       76.44166       57.11627
O         69.48695       74.01900       58.66555
H         70.33459       74.43376       58.96105
H         69.14233       73.56494       59.47478

Ca 1.0



