%chk=holoCaM-CaMKII.loop2.water2.frame101.chk
%nprocshared=20
%mem=10GB
%nosave
#b3lyp/svp scf=(tight,noincore,xqc) Test 
#IOP(5/87=12) Density=Current Pop=(MK,readradii) iop(6/33=2) iop(6/42=6)

holoCaM-CaMKII.loop2.water2.frame101 

   -2  1 
C         19.40160       57.00755       41.86154
C         18.39719       56.61045       40.81144
O         18.79082       56.16232       39.74499
H         20.06269       57.81220       41.48203
H         18.90242       57.37036       42.78684
H         20.01777       56.12489       42.13711
N         17.06725       56.71059       41.07474
C         16.01637       56.23361       40.18102
C         15.89669       57.06739       38.90638
O         15.75020       58.27703       39.01887
C         14.66509       56.29974       40.93155
C         13.56405       55.56244       40.22983
O         12.31886       55.58318       40.73904
O         13.79579       54.89886       39.23445
H         16.79165       57.07335       42.00133
H         16.22396       55.16482       39.94854
H         14.37481       57.36316       41.07846
H         14.76414       55.83328       41.93336
N         15.86287       56.48029       37.66813
C         15.62856       57.23572       36.43260
C         14.35667       56.81802       35.67584
O         14.04661       57.47837       34.69362
C         16.83852       57.07099       35.50623
H         15.99070       55.45936       37.60112
H         15.52005       58.31749       36.66365
H         17.76345       57.41444       36.01523
H         16.96251       56.00300       35.22177
H         16.70845       57.67048       34.57914
N         13.61017       55.72210       36.01389
C         12.48292       55.22518       35.20677
C         11.21294       54.88681       36.00161
O         10.23902       54.50313       35.36711
C         12.93875       53.98083       34.40352
C         13.65572       52.96628       35.24997
O         14.73802       52.54083       34.87831
O         13.30892       52.80371       36.53680
H         13.92736       55.14674       36.79929
H         12.17432       55.98802       34.45902
H         13.65639       54.31935       33.62323
H         12.08464       53.51299       33.86984
N         11.11897       54.99254       37.35769
C          9.89888       54.68245       38.10091
C          9.47010       53.21496       38.10251
O          8.42709       52.93470       38.67631
H         11.91291       55.36163       37.88682
H          9.07120       55.30121       37.69242
H         10.04361       54.97421       39.16377
N         10.19785       52.22497       37.50653
C          9.79534       50.81459       37.46858
C          9.78185       50.10419       38.83259
O          9.45591       48.92489       38.85734
C         10.66813       50.03329       36.45187
C         12.13617       49.92106       36.78057
N         12.95395       49.25341       35.93696
O         12.59676       50.42579       37.79223
H         11.04800       52.48763       37.00609
H          8.76215       50.76976       37.05812
H         10.57792       50.52921       35.46030
H         10.26384       49.00299       36.34833
H         12.58750       48.82335       35.07549
H         13.95546       49.16431       36.14393
N         10.07222       50.74148       40.00489
C          9.96200       50.10693       41.31135
C         11.08500       49.15197       41.67002
O         11.01952       48.60188       42.76062
H         10.28332       51.74319       40.00151
H          8.97739       49.59520       41.38715
H          9.98257       50.90086       42.08856
N         12.15049       48.91530       40.85171
C         13.25408       48.02463       41.20992
C         14.59370       48.75385       41.19401
O         14.67076       49.90714       40.79166
C         13.29787       46.82390       40.22071
C         12.07109       45.92425       40.37215
O         13.37030       47.27284       38.89035
H         12.18996       49.37609       39.93595
H         13.12553       47.62544       42.23987
H         14.16934       46.16517       40.43761
H         14.30142       47.57823       38.73430
H         11.13717       46.48014       40.14905
H         12.14950       45.06415       39.67234
H         12.02009       45.52342       41.40750
N         15.71263       48.07065       41.56751
C         17.08148       48.52702       41.36917
C         17.61475       47.73111       40.19823
O         17.57020       46.50743       40.21687
C         17.94456       48.34506       42.66537
C         17.70401       49.48356       43.69639
C         19.45777       48.20843       42.37619
C         18.29727       50.84902       43.29781
H         15.59674       47.09835       41.89393
H         17.11541       49.59035       41.06764
H         17.64549       47.38231       43.13649
H         18.18619       49.19996       44.65764
H         16.61482       49.59272       43.88296
H         19.66039       47.29939       41.77239
H         19.85086       49.08094       41.81558
H         20.02355       48.09362       43.32553
H         19.40227       50.79789       43.19964
H         17.88344       51.22026       42.34523
H         18.07878       51.59925       44.08559
N         18.16455       48.39117       39.14489
C         18.71761       47.73810       37.97083
C         20.21841       47.69198       38.09669
O         20.73631       48.16047       39.09969
C         18.31393       48.53872       36.72029
C         16.82728       48.67442       36.60971
O         16.12309       47.68531       36.48642
O         16.26708       49.89749       36.65498
H         18.26842       49.41405       39.20587
H         18.35270       46.68988       37.89366
H         18.70201       48.05634       35.79988
H         18.75530       49.55949       36.79176
N         20.99403       47.10340       37.14552
C         22.44179       47.05397       37.27432
C         23.05073       48.45456       37.16627
O         23.83072       48.78829       38.04451
C         23.08649       46.04406       36.30283
C         24.53401       45.80489       36.66656
C         25.56389       46.17957       35.79002
C         24.86521       45.20084       37.89619
C         26.90032       45.96205       36.14117
C         26.20064       44.98254       38.24054
C         27.21818       45.36445       37.36445
H         20.54042       46.64592       36.33940
H         22.65610       46.64741       38.28826
H         22.99898       46.38171       35.25705
H         22.55819       45.06807       36.37393
H         25.33355       46.64734       34.84137
H         24.09147       44.89301       38.58899
H         27.69061       46.25813       35.46472
H         26.44516       44.51701       39.18713
H         28.25251       45.19606       37.63389
N         22.73699       49.35832       36.17177
C         23.28596       50.71560       36.10854
C         22.96547       51.60836       37.30960
O         23.47479       52.71941       37.36088
C         22.64847       51.31631       34.84889
C         22.43045       50.09008       33.99176
C         21.89661       49.09998       35.02145
H         24.38740       50.61051       35.98874
H         21.63053       51.70006       35.09548
H         23.23127       52.13927       34.38211
H         21.76946       50.24318       33.11264
H         23.42593       49.73333       33.63859
H         20.84355       49.33510       35.28754
H         21.96902       48.08534       34.60053
N         22.14242       51.18662       38.31151
C         21.84658       51.93690       39.52710
C         22.57311       51.31672       40.70906
O         22.94248       52.04669       41.61750
C         20.33260       51.91360       39.80149
C         19.53363       52.60023       38.69030
C         18.05311       52.43697       38.85793
O         17.24992       52.94216       37.91679
O         17.57175       51.80735       39.78436
H         21.69976       50.26733       38.22762
H         22.18809       52.99270       39.43915
H         20.10575       52.41958       40.76615
H         20.01358       50.85155       39.88441
H         19.79233       52.14912       37.70880
H         19.78363       53.68240       38.66335
N         22.83334       49.98026       40.76186
C         23.55380       49.35824       41.84474
H         24.56826       49.80139       41.92381
H         22.99736       49.49124       42.79421
H         23.66054       48.26992       41.63988
H         22.52972       49.36542       40.00674
Ca        15.08814       52.39749       37.80236
O         12.69630       52.40759       40.47160
H         12.27354       52.87556       39.70812
H         12.18649       52.71281       41.26403
O         15.32057       53.02436       41.46498
H         15.07703       53.50703       42.29294
H         16.02316       52.39431       41.75393

Ca 1.0



