%chk=holoCaM.loop1.water2.frame448.chk
%nprocshared=20
%mem=10GB
%nosave
#b3lyp/svp scf=(tight,noincore,xqc) Test 
#IOP(5/87=12) Density=Current Pop=(MK,readradii) iop(6/33=2) iop(6/42=6)

holoCaM.loop1.water2.frame448 

   0  1 
C         11.71791       94.43441       41.07561
C         10.71709       95.54059       40.96688
O          9.54432       95.31674       41.22917
H         12.49951       94.71421       41.81329
H         11.22764       93.49576       41.41033
H         12.18952       94.26518       40.08575
N         11.12199       96.78864       40.61136
C         10.19599       97.90494       40.52901
C          9.23868       97.72708       39.35207
O          9.68944       97.64000       38.21831
C         10.97234       99.22425       40.47488
C         10.00385      100.34803       40.48614
O          9.01196      100.36476       41.39341
O         10.05668      101.20063       39.62458
H         12.12866       96.95235       40.44939
H          9.62091       97.93025       41.48136
H         11.63324       99.28222       39.58069
H         11.60398       99.30020       41.38670
N          7.89774       97.59880       39.57689
C          6.95720       97.15978       38.54495
C          6.55258       98.22713       37.52959
O          6.05593       97.84322       36.47963
C          5.67650       96.55679       39.17842
C          5.92547       95.44525       40.22260
C          6.75797       94.28112       39.67413
C          6.92761       93.17522       40.72197
N          7.77524       92.10246       40.20308
H          7.57929       97.64485       40.55395
H          7.45548       96.34502       37.97688
H          5.04120       96.13841       38.36780
H          5.09551       97.36224       39.67670
H          4.93620       95.06856       40.56257
H          6.43930       95.85715       41.11394
H          7.76728       94.64820       39.39541
H          6.26368       93.86296       38.77157
H          5.92937       92.76460       40.99106
H          7.39353       93.59309       41.64267
H          8.73207       92.47251       39.99633
H          7.85355       91.34734       40.92142
H          7.35747       91.70261       39.33160
N          6.64310       99.56450       37.78709
C          6.19597      100.60385       36.84087
C          7.32146      101.56741       36.46192
O          7.08219      102.46673       35.66840
C          4.95478      101.33970       37.41599
C          5.22391      102.04555       38.71435
O          4.30439      102.44513       39.40913
O          6.49485      102.20688       39.10669
H          7.00234       99.85134       38.70869
H          5.85927      100.13743       35.88994
H          4.18187      100.56122       37.59798
H          4.53816      102.06711       36.68573
N          8.58063      101.42121       36.96160
C          9.71075      102.24609       36.57980
C          9.60226      103.69523       36.99565
O          9.77079      104.55702       36.14461
H          8.78541      100.64512       37.60251
H          9.87488      102.16639       35.48353
H         10.61967      101.84232       37.07780
N          9.42545      104.03828       38.30435
C          9.58903      105.39840       38.80548
C         10.80137      105.50049       39.73452
O         11.10941      106.60959       40.14710
C          8.29159      105.91840       39.45975
C          7.80336      105.08929       40.61153
O          8.57483      104.91071       41.69705
O          6.68239      104.60841       40.58371
H          9.23646      103.29881       38.99018
H          9.81203      106.09027       37.96451
H          7.49700      105.95677       38.68295
H          8.45700      106.95492       39.82483
N         11.55220      104.41044       40.08936
C         12.77651      104.50147       40.86958
C         12.65020      103.92706       42.26387
O         13.66043      103.91826       42.95549
H         11.28841      103.46700       39.78026
H         13.10708      105.55514       40.98179
H         13.57862      103.96572       40.31465
N         11.46721      103.47431       42.77841
C         11.33848      103.00608       44.16204
C         10.29324      101.91234       44.29875
O          9.52874      101.68882       43.38122
C         10.99894      104.17237       45.13010
C         12.10973      105.22172       45.25047
O          9.78385      104.78437       44.77563
H         10.62501      103.50277       42.18662
H         12.29684      102.52594       44.46207
H         10.87673      103.75116       46.15028
H          9.93115      105.28089       43.92847
H         11.81754      105.98196       46.00535
H         13.05296      104.73948       45.58384
H         12.28120      105.74402       44.28708
N         10.22174      101.17183       45.43679
C          9.33269      100.02879       45.63119
C          8.36953      100.32979       46.76820
O          8.79868      100.73104       47.84158
C         10.19978       98.75302       45.87906
C         10.92008       98.36953       44.55417
C          9.35462       97.56908       46.39302
C         11.93135       97.22931       44.68431
H         10.87396      101.39644       46.20485
H          8.71896       99.82575       44.72444
H         10.95094       98.98707       46.66567
H         11.47621       99.24698       44.16228
H         10.15901       98.08152       43.79587
H          9.99129       96.69088       46.61734
H          8.85672       97.82866       47.34956
H          8.58560       97.27694       45.65100
H         11.45345       96.28426       45.01006
H         12.39462       97.03855       43.69231
H         12.73060       97.51010       45.40138
N          7.03798      100.08484       46.59801
C          6.01377      100.29593       47.61282
C          5.61159       98.96550       48.23756
O          6.16462       97.93260       47.88552
C          4.78854      101.02950       46.99181
C          5.15112      102.42492       46.46411
O          4.17799      100.24021       45.99591
H          6.73480       99.65973       45.71509
H          6.41507      100.91729       48.44311
H          4.02247      101.20819       47.77287
H          4.60708      100.43447       45.12342
H          5.54555      103.05491       47.28876
H          5.91811      102.35187       45.66868
H          4.24558      102.91563       46.04579
N          4.65523       98.93548       49.20714
C          4.23392       97.73329       49.92523
C          3.77258       96.65155       48.96789
O          4.22749       95.52243       49.07559
C          3.08770       98.08953       50.91062
C          2.63771       96.88542       51.74235
O          3.51986       99.09431       51.79512
H          4.20654       99.82741       49.45881
H          5.09277       97.34702       50.51864
H          2.19942       98.43927       50.32790
H          3.05067       99.93433       51.54748
H          1.82054       97.19172       52.42909
H          2.25173       96.07192       51.09290
H          3.48611       96.49772       52.34526
N          2.84391       96.93651       48.02086
C          2.31005       95.95740       47.07891
C          3.42141       95.43825       46.17713
O          3.58144       94.23034       46.06830
C          1.16588       96.58810       46.24778
C          0.01289       97.07510       47.15725
C         -1.07042       97.82733       46.37833
C         -2.05573       98.49880       47.35114
N         -3.05071       99.29389       46.63448
H          2.51525       97.91113       47.97108
H          1.86059       95.10512       47.63838
H          0.76509       95.83847       45.52943
H          1.56960       97.44756       45.66960
H          0.40796       97.78513       47.90778
H         -0.43607       96.21902       47.70835
H         -1.60240       97.13211       45.69278
H         -0.58751       98.62703       45.77605
H         -1.48885       99.17516       48.03142
H         -2.56591       97.73054       47.97335
H         -3.63675       98.67579       46.02899
H         -3.66523       99.77653       47.32975
H         -2.57599      100.01990       46.04940
N          4.24985       96.30586       45.52253
C          5.32755       95.87792       44.62319
C          6.42293       95.06589       45.32016
O          7.29222       94.55887       44.62319
C          6.00582       97.09730       43.95217
C          5.04544       97.95787       43.11596
C          5.76661       99.12078       42.49299
O          5.76157       99.27040       41.28322
O          6.40063      100.02182       43.26510
H          4.08869       97.31277       45.66728
H          4.87749       95.24157       43.82921
H          6.82372       96.74495       43.28609
H          6.46140       97.71761       44.74617
H          4.23387       98.36809       43.74763
H          4.58594       97.33103       42.32224
N          6.47710       94.91248       46.67230
C          7.52026       94.15270       47.32687
H          8.51216       94.60042       47.10755
H          7.36285       94.16464       48.42717
H          7.50098       93.09857       46.97816
H          5.77568       95.35625       47.26905
Ca         7.39310      101.86867       41.10407
O          6.73499      103.61156       43.60869
H          6.39004      104.39073       44.11194
H          7.68145      103.53819       43.88427
O          4.36667      102.21932       42.57153
H          4.37659      103.01184       41.97841
H          3.41000      102.07567       42.78006

Ca 1.0



