%chk=holoCaM.loop1.water2.frame79.chk
%nprocshared=20
%mem=10GB
%nosave
#b3lyp/svp scf=(tight,noincore,xqc) Test 
#IOP(5/87=12) Density=Current Pop=(MK,readradii) iop(6/33=2) iop(6/42=6)

holoCaM.loop1.water2.frame79 

   0  1 
C         79.21494       28.52563      110.73344
C         78.24127       29.59304      110.33521
O         77.89829       30.41391      111.17510
H         80.15909       28.99880      111.07745
H         78.78635       27.92610      111.56341
H         79.44611       27.84926      109.88459
N         77.76148       29.66325      109.06019
C         76.85070       30.71742      108.64296
C         75.51999       30.61048      109.38172
O         74.89493       29.55979      109.35556
C         76.61480       30.71344      107.11936
C         75.87406       31.97475      106.77891
O         74.74764       31.93615      106.32058
O         76.45000       33.15018      107.09976
H         78.08782       28.97671      108.36254
H         77.35215       31.68396      108.88045
H         76.05141       29.80549      106.81068
H         77.58679       30.73095      106.57933
N         75.03560       31.69140      110.05067
C         73.82556       31.71517      110.85823
C         72.74956       32.66054      110.31280
O         71.73904       32.80600      110.98651
C         74.20511       32.00402      112.33863
C         75.15363       33.18619      112.64255
C         74.63581       34.57692      112.25420
C         75.64430       35.65582      112.70072
N         75.22231       36.99498      112.29799
H         75.57046       32.55795      109.99764
H         73.33737       30.71552      110.86758
H         74.74542       31.10329      112.70679
H         73.28174       32.09429      112.95009
H         76.13408       33.00737      112.15161
H         75.33864       33.17769      113.73937
H         73.65777       34.76546      112.74537
H         74.50178       34.62615      111.15463
H         76.63835       35.45603      112.25709
H         75.76066       35.62378      113.80627
H         74.29566       37.22648      112.72156
H         75.93387       37.68861      112.62471
H         75.16608       37.05300      111.25782
N         72.83251       33.25892      109.08262
C         71.75531       34.08902      108.52092
C         71.11286       33.46185      107.28663
O         70.19323       34.06196      106.74512
C         72.31372       35.44165      108.06081
C         73.00575       36.22706      109.12271
O         74.32231       36.46437      108.99846
O         72.38579       36.68157      110.07037
H         73.66419       33.09191      108.49876
H         70.95163       34.25269      109.27032
H         71.50900       36.07962      107.63463
H         73.03155       35.23011      107.24716
N         71.55969       32.29650      106.74724
C         71.04680       31.75588      105.50192
C         71.31699       32.66733      104.31833
O         70.46830       32.75611      103.44284
H         72.31486       31.76884      107.20552
H         69.96282       31.52110      105.58372
H         71.57913       30.80082      105.30087
N         72.51404       33.31187      104.19229
C         72.93314       34.03280      102.99255
C         74.11679       33.32814      102.32442
O         74.55958       33.78837      101.28137
C         73.24156       35.51650      103.30402
C         74.29786       35.73553      104.35247
O         75.41252       35.25922      104.22600
O         74.02727       36.51023      105.41848
H         73.18984       33.24513      104.96474
H         72.11832       34.03194      102.23637
H         72.30769       36.01866      103.63890
H         73.56976       36.01635      102.36682
N         74.65388       32.18478      102.84367
C         75.72018       31.42178      102.22379
C         77.01342       32.18818      102.11218
O         77.60856       32.16557      101.04773
H         74.27866       31.78407      103.71243
H         75.39534       31.04962      101.22778
H         75.92051       30.53464      102.86429
N         77.54391       32.80709      103.20346
C         78.86799       33.44616      103.24896
C         79.29162       33.71003      104.69699
O         78.48517       33.60671      105.60502
C         78.98765       34.77305      102.43164
C         79.01393       34.64672      100.90189
O         78.00927       35.69667      102.82696
H         76.99400       32.72623      104.07153
H         79.60614       32.70432      102.87086
H         79.98148       35.21001      102.66821
H         77.14878       35.39610      102.43369
H         79.79645       33.92193      100.59001
H         78.03118       34.36340      100.48376
H         79.26077       35.63506      100.45938
N         80.59616       33.96726      104.98755
C         81.12445       34.03963      106.34686
C         81.83678       35.36539      106.58058
O         82.71252       35.74129      105.81457
C         82.01150       32.77518      106.59510
C         81.05509       31.55549      106.78178
C         82.94718       32.92689      107.80834
C         81.73906       30.21069      107.01575
H         81.27475       34.01138      104.21154
H         80.31150       33.98859      107.10261
H         82.67473       32.61986      105.71574
H         80.41611       31.44738      105.88024
H         80.38506       31.74124      107.65310
H         83.63370       33.78654      107.66764
H         82.37985       33.06500      108.74057
H         83.59836       32.03715      107.91842
H         80.95957       29.42406      107.11442
H         82.39881       29.95904      106.16114
H         82.32061       30.21121      107.95998
N         81.54831       36.06891      107.71506
C         82.23132       37.27316      108.16847
C         83.17803       36.88297      109.29617
O         83.31445       35.70018      109.57184
C         81.19240       38.32729      108.65849
C         80.22481       38.77128      107.55169
O         80.49398       37.86541      109.79342
H         80.88018       35.65946      108.37705
H         82.84159       37.71841      107.35279
H         81.72949       39.24806      108.96697
H         79.71337       37.33155      109.49590
H         79.52926       39.54163      107.95091
H         80.78723       39.20994      106.70151
H         79.62639       37.91200      107.18718
N         83.87943       37.81849      109.99200
C         84.74765       37.47301      111.11642
C         83.96249       36.82848      112.25052
O         84.42945       35.83047      112.78101
C         85.52870       38.69597      111.64399
C         86.49069       39.24394      110.58212
O         84.64407       39.70154      112.06497
H         83.78347       38.80759      109.72216
H         85.51851       36.74405      110.77439
H         86.14341       38.34359      112.50746
H         85.14785       40.27716      112.69800
H         87.08508       40.07854      111.00805
H         87.19462       38.44680      110.25795
H         85.94335       39.61833      109.69306
N         82.76766       37.33520      112.68231
C         82.02597       36.73510      113.79603
C         81.54419       35.31191      113.50271
O         81.03192       34.68074      114.41735
C         80.79583       37.57834      114.21097
C         81.13638       39.03626      114.55373
C         79.93116       39.74810      115.18148
C         80.23594       41.23311      115.41617
N         79.13235       41.89229      116.11312
H         82.39818       38.17575      112.21672
H         82.71608       36.69923      114.66880
H         80.35578       37.10166      115.11620
H         80.02751       37.56689      113.40553
H         81.43850       39.57278      113.63046
H         81.97801       39.06713      115.27934
H         79.69575       39.25684      116.15179
H         79.04368       39.66449      114.51614
H         80.40249       41.72801      114.43284
H         81.16157       41.33881      116.02397
H         79.01566       41.47523      117.06545
H         79.35287       42.90914      116.21641
H         78.24398       41.78953      115.57110
N         81.65555       34.74636      112.26451
C         81.18375       33.40627      111.93263
C         82.33699       32.47574      111.56858
O         82.09569       31.28247      111.45060
C         80.19045       33.49695      110.75349
C         79.04821       34.47762      111.03535
C         78.15486       34.65856      109.84343
O         78.59686       35.05240      108.77877
O         76.84119       34.45040      109.96105
H         82.05466       35.29561      111.50183
H         80.67288       32.95792      112.81250
H         79.78408       32.49090      110.50851
H         80.73540       33.87846      109.87115
H         79.45989       35.47858      111.28014
H         78.46491       34.10958      111.90455
N         83.60713       32.93762      111.36527
C         84.73932       32.09048      111.05495
H         85.53877       32.26952      111.80524
H         84.48048       31.01234      111.06795
H         85.13355       32.35460      110.05114
H         83.80630       33.94053      111.40804
Ca        75.50138       35.12320      107.61151
O         77.64188       37.15348      105.54206
H         78.41803       37.02269      104.94305
H         77.58426       38.13579      105.64968
O         76.43016       38.31831      108.03835
H         77.17148       38.13111      108.66726
H         75.77671       38.84038      108.56761

Ca 1.0



