%chk=holoCaM.loop2.water2.frame414.chk
%nprocshared=20
%mem=10GB
%nosave
#b3lyp/svp scf=(tight,noincore,xqc) Test 
#IOP(5/87=12) Density=Current Pop=(MK,readradii) iop(6/33=2) iop(6/42=6)

holoCaM.loop2.water2.frame414 

   -2  1 
C         97.72239      103.29176       34.32895
C         99.15710      103.72783       34.25586
O         99.90485      103.47679       35.18988
H         97.15962      103.59440       33.41958
H         97.67297      102.18667       34.41782
H         97.23603      103.75618       35.21120
N         99.61711      104.37824       33.15387
C        100.99857      104.81680       33.00205
C        101.30309      105.90825       34.02291
O        100.61582      106.92055       34.00374
C        101.18990      105.33020       31.55721
C        102.61359      105.56489       31.16560
O        102.85668      105.98938       30.05005
O        103.62554      105.26418       31.99674
H         98.95655      104.54245       32.37726
H        101.66220      103.93618       33.14312
H        100.60312      106.26400       31.41366
H        100.80312      104.56578       30.84768
N        102.29772      105.76816       34.95295
C        102.56006      106.76718       35.99399
C        103.91768      107.45264       35.85526
O        104.14600      108.42026       36.56803
C        102.41044      106.11897       37.37161
H        102.87056      104.91264       34.93678
H        101.80801      107.58275       35.92484
H        101.39407      105.68094       37.47203
H        103.16122      105.31090       37.50434
H        102.54599      106.87330       38.17576
N        104.84224      107.05121       34.93825
C        106.06921      107.78921       34.62310
C        106.04885      108.27263       33.17116
O        106.98663      108.94723       32.76928
C        107.32646      106.94791       34.94813
C        107.19509      105.52112       34.50047
O        107.20314      104.63901       35.34363
O        106.92251      105.19788       33.22233
H        104.65362      106.20347       34.38717
H        106.14516      108.71744       35.23246
H        107.44280      106.93366       36.05607
H        108.23923      107.42609       34.53234
N        104.98407      108.03539       32.34967
C        104.82901      108.60905       31.02772
C        105.88216      108.20149       30.02387
O        106.52040      109.09741       29.48907
H        104.17938      107.50073       32.69205
H        104.81710      109.71675       31.12799
H        103.83967      108.31198       30.62171
N        106.08538      106.89498       29.66402
C        106.99442      106.52222       28.57051
C        106.29719      105.78628       27.42100
O        106.90870      105.65844       26.36950
C        108.20059      105.71135       29.07453
C        107.83947      104.30775       29.49169
N        108.34884      103.24663       28.82164
O        107.08302      104.12501       30.43219
H        105.56480      106.16291       30.16704
H        107.41268      107.45128       28.12701
H        108.69218      106.24360       29.91714
H        108.93798      105.65780       28.24377
H        108.98037      103.37892       28.01791
H        108.10850      102.28598       29.09842
N        105.04415      105.25966       27.54366
C        104.32079      104.60462       26.46338
C        103.94971      103.16995       26.78464
O        103.06495      102.64715       26.12157
H        104.55002      105.32560       28.43840
H        104.86214      104.63066       25.49407
H        103.37647      105.17552       26.33095
N        104.58842      102.45669       27.75683
C        104.20128      101.10128       28.15448
C        103.95486      101.07265       29.65355
O        104.15556      102.09000       30.30660
C        105.31732      100.08607       27.79017
C        105.58732      100.04108       26.28480
O        106.50299      100.40967       28.46828
H        105.38922      102.88625       28.24458
H        103.26708      100.78671       27.63899
H        104.97465       99.07042       28.09849
H        107.02513       99.57005       28.56278
H        106.36532       99.27725       26.06915
H        104.66250       99.76357       25.73662
H        105.95066      101.02445       25.91981
N        103.56520       99.92377       30.28012
C        103.54617       99.80375       31.73518
C        104.55462       98.75731       32.18023
O        105.00962       97.95775       31.37237
C        102.11958       99.55827       32.30711
C        101.48144       98.24621       31.78512
C        101.23435      100.78500       32.02135
C        100.14028       97.92096       32.45124
H        103.35121       99.08852       29.71408
H        103.91026      100.75118       32.18455
H        102.21537       99.47376       33.40937
H        102.16728       97.40067       32.00598
H        101.33043       98.29802       30.68590
H        100.25022      100.70421       32.52472
H        101.71967      101.69805       32.42223
H        101.07522      100.91551       30.93027
H         99.76462       96.94588       32.07628
H        100.26534       97.85208       33.55152
H         99.37079       98.68442       32.21850
N        105.00547       98.77211       33.46372
C        106.01229       97.86174       34.00070
C        105.39311       97.13232       35.19356
O        104.19522       97.26243       35.38245
C        107.25668       98.70809       34.36475
C        108.55835       97.95548       34.51090
O        108.64666       96.76651       34.24721
O        109.67126       98.63519       34.84472
H        104.64201       99.49921       34.09830
H        106.31734       97.12186       33.22865
H        107.03982       99.31034       35.27122
H        107.45363       99.41266       33.53314
N        106.10706       96.33636       36.03535
C        105.49138       95.60973       37.14091
C        104.82155       96.54105       38.16406
O        103.66468       96.28040       38.46557
C        106.50677       94.62383       37.76861
C        105.88513       93.65209       38.74433
C        104.85136       92.78822       38.33395
C        106.35978       93.56943       40.06441
C        104.30145       91.86756       39.22904
C        105.81058       92.64083       40.95463
C        104.78192       91.79184       40.53773
H        107.11035       96.20595       35.88094
H        104.69746       94.97090       36.69649
H        107.34586       95.16204       38.24429
H        106.94334       94.01241       36.94877
H        104.47206       92.81671       37.32091
H        107.16206       94.21330       40.40242
H        103.50723       91.20757       38.90424
H        106.18655       92.57534       41.96710
H        104.36004       91.07179       41.22660
N        105.42145       97.64785       38.72629
C        104.78065       98.51767       39.72227
C        103.49778       99.22331       39.28729
O        102.92142       99.93706       40.09641
C        105.83198       99.60517       39.98730
C        107.12488       98.87228       39.73223
C        106.78113       98.07940       38.47632
H        104.59537       97.89762       40.62725
H        105.76712      100.38504       39.19088
H        105.74015      100.10891       40.97350
H        108.01888       99.52418       39.63484
H        107.28196       98.15791       40.57181
H        106.78178       98.73217       37.57675
H        107.51801       97.26919       38.36334
N        103.02578       99.11536       38.01763
C        101.87595       99.82968       37.48552
C        100.79094       98.81495       37.19129
O         99.70933       98.93424       37.75081
C        102.35231      100.64208       36.25591
C        103.31775      101.74406       36.73406
C        104.07389      102.48384       35.67242
O        104.80592      103.39309       36.02602
O        104.03004      102.16350       34.36441
H        103.53084       98.52770       37.35081
H        101.45478      100.54499       38.22869
H        101.49832      101.11465       35.72347
H        102.86922       99.95608       35.55611
H        104.09928      101.30983       37.39145
H        102.72965      102.47754       37.32831
N        101.02772       97.73920       36.39455
C        100.06491       96.67311       36.23267
H         99.13163       97.06045       35.77668
H        100.48959       95.87754       35.58375
H         99.83832       96.22400       37.22487
H        101.93385       97.64168       35.92715
Ca       105.42819      103.49620       33.17682
O        106.89741      100.97780       31.61784
H        106.64074      101.59091       30.88784
H        107.70601      100.51680       31.28122
O        107.98730      102.00149       34.25849
H        108.49082      102.63479       33.68766
H        108.67551      101.58171       34.83282

Ca 1.0



