%chk=holoCaM.loop2.water2.frame166.chk
%nprocshared=20
%mem=10GB
%nosave
#b3lyp/svp scf=(tight,noincore,xqc) Test 
#IOP(5/87=12) Density=Current Pop=(MK,readradii) iop(6/33=2) iop(6/42=6)

holoCaM.loop2.water2.frame166 

   -2  1 
C         14.11107       83.92936      -20.77664
C         15.60928       83.95334      -20.66783
O         16.13916       83.88893      -19.57035
H         13.74087       84.85269      -21.26811
H         13.81002       83.05214      -21.39168
H         13.64062       83.82817      -19.77644
N         16.35687       83.98364      -21.79952
C         17.80868       83.83167      -21.82312
C         18.56962       85.00997      -21.22106
O         18.16656       86.15458      -21.37203
C         18.24047       83.57349      -23.27051
C         19.71027       83.40778      -23.46452
O         20.28464       84.13896      -24.25327
O         20.43877       82.48621      -22.81876
H         15.84887       84.01466      -22.69918
H         18.06714       82.91029      -21.25675
H         17.90371       84.41759      -23.90988
H         17.74416       82.64566      -23.62294
N         19.71606       84.75334      -20.52448
C         20.56351       85.74674      -19.87496
C         22.07503       85.48855      -20.07971
O         22.86335       86.26346      -19.55473
C         20.22334       85.71706      -18.38302
H         19.95894       83.76984      -20.38949
H         20.32433       86.76567      -20.25193
H         20.81212       86.46922      -17.81897
H         19.14382       85.95268      -18.25168
H         20.41375       84.70739      -17.96005
N         22.55480       84.42148      -20.79500
C         23.97439       84.06836      -20.91665
C         24.33806       83.38390      -22.25440
O         25.50493       83.06347      -22.43473
C         24.42550       83.23516      -19.68283
C         23.62461       81.98709      -19.37078
O         23.93983       81.29870      -18.41485
O         22.52839       81.65331      -20.06989
H         21.88310       83.75617      -21.17233
H         24.58723       84.99869      -20.90669
H         24.36285       83.88664      -18.78374
H         25.49459       82.95398      -19.80893
N         23.42833       83.17647      -23.25481
C         23.73424       82.62619      -24.57213
C         24.21363       81.18400      -24.61448
O         24.54363       80.73309      -25.70244
H         22.47625       83.50977      -23.13516
H         24.50401       83.26921      -25.04566
H         22.81618       82.67895      -25.20060
N         24.30040       80.40011      -23.50457
C         24.87256       79.04887      -23.51072
C         24.06045       77.97515      -24.26468
O         24.48268       76.82650      -24.25209
C         25.13066       78.59910      -22.05800
C         23.88887       78.42710      -21.22912
N         23.99427       77.95353      -19.97537
O         22.78567       78.69784      -21.67603
H         24.02535       80.80694      -22.60016
H         25.87732       79.10471      -23.98470
H         25.78917       79.34100      -21.55426
H         25.67087       77.62817      -22.07646
H         24.91015       77.72924      -19.56141
H         23.14264       77.78823      -19.43724
N         22.91737       78.25591      -24.95244
C         22.17331       77.27635      -25.73251
C         21.09087       76.54264      -24.96110
O         20.35867       75.79922      -25.59959
H         22.61776       79.22719      -25.04150
H         22.86326       76.56007      -26.23182
H         21.64975       77.82569      -26.54416
N         20.92887       76.66310      -23.60932
C         19.89820       75.93948      -22.86295
C         19.18863       76.82078      -21.83529
O         19.68383       77.88624      -21.49425
C         20.53801       74.71837      -22.13617
C         21.06978       73.69980      -23.14732
O         21.60884       75.07967      -21.29038
H         21.60249       77.22308      -23.08153
H         19.11624       75.56593      -23.56131
H         19.75690       74.20395      -21.53433
H         21.46323       75.99023      -20.92911
H         20.25922       73.36919      -23.83069
H         21.89870       74.13308      -23.74638
H         21.46183       72.81017      -22.61056
N         18.03070       76.38170      -21.25532
C         17.40983       77.02390      -20.09874
C         18.16364       76.62295      -18.84008
O         18.23144       75.44678      -18.51130
C         15.86801       76.71989      -20.03223
C         15.14088       77.72665      -20.97055
C         15.29627       76.80094      -18.59870
C         13.61697       77.60797      -21.00991
H         17.62754       75.49288      -21.58950
H         17.50501       78.12574      -20.18875
H         15.68114       75.67210      -20.35715
H         15.53049       77.60274      -22.00313
H         15.36931       78.76550      -20.63767
H         15.41953       77.81180      -18.16747
H         14.22358       76.52059      -18.58225
H         15.78800       76.05541      -17.93935
H         13.16954       77.83818      -20.02015
H         13.21536       78.35930      -21.72312
H         13.31089       76.59459      -21.33731
N         18.73515       77.59506      -18.07510
C         19.37742       77.37293      -16.78660
C         18.34312       77.27565      -15.69120
O         17.16391       77.41894      -15.96695
C         20.30925       78.55740      -16.47240
C         21.43331       78.59608      -17.44565
O         21.31188       79.18305      -18.50988
O         22.51994       77.83893      -17.20542
H         18.66144       78.56565      -18.39650
H         19.97276       76.43351      -16.81500
H         20.76112       78.45757      -15.46496
H         19.75378       79.52139      -16.48887
N         18.71992       77.01940      -14.40696
C         17.75910       76.92588      -13.32011
C         17.08815       78.27244      -13.03079
O         15.86709       78.28255      -13.05378
C         18.37796       76.26889      -12.07196
C         17.34769       76.15868      -10.97717
C         16.18463       75.38788      -11.16266
C         17.52865       76.85162       -9.77067
C         15.21750       75.32115      -10.15826
C         16.55817       76.78172       -8.76865
C         15.40306       76.01889       -8.96251
H         19.71588       76.84039      -14.20802
H         16.96649       76.21597      -13.64543
H         19.25855       76.82736      -11.71884
H         18.74318       75.25203      -12.33446
H         16.02072       74.84353      -12.08444
H         18.41337       77.45585       -9.61167
H         14.32263       74.73161      -10.31029
H         16.70041       77.32447       -7.84410
H         14.65087       75.96965       -8.18711
N         17.74667       79.44534      -12.74882
C         17.05311       80.72109      -12.57285
C         16.12355       81.05661      -13.73890
O         15.05533       81.60454      -13.51189
C         18.19388       81.74330      -12.45211
C         19.26896       80.91406      -11.78862
C         19.17818       79.61482      -12.58505
H         16.47642       80.67785      -11.62285
H         18.58592       82.01255      -13.45947
H         17.91673       82.67653      -11.91443
H         20.28039       81.37167      -11.75108
H         18.94063       80.70708      -10.74101
H         19.65769       79.70535      -13.58391
H         19.67040       78.84312      -11.97600
N         16.46028       80.71324      -15.01408
C         15.60549       80.94274      -16.18345
C         14.32645       80.11555      -16.12468
O         13.28189       80.62166      -16.50844
C         16.39185       80.65559      -17.47761
C         17.57710       81.63709      -17.57420
C         18.47370       81.41567      -18.74053
O         18.22179       80.58624      -19.59475
O         19.60800       82.12677      -18.81369
H         17.37019       80.24774      -15.15601
H         15.32171       82.01713      -16.23554
H         15.73633       80.78657      -18.36841
H         16.75897       79.60903      -17.46549
H         18.22185       81.54506      -16.68098
H         17.20048       82.67980      -17.61458
N         14.32691       78.85714      -15.60549
C         13.14655       78.03186      -15.44824
H         12.24789       78.48238      -15.91613
H         13.32703       77.03541      -15.90391
H         12.94768       77.88779      -14.36375
H         15.20422       78.47004      -15.26077
Ca        20.68234       81.00633      -21.16990
O         17.75719       80.03663      -22.84298
H         17.73073       79.93691      -21.86179
H         16.83011       80.28318      -23.08330
O         20.77144       80.07228      -23.82892
H         21.01747       80.74258      -24.51640
H         20.05083       79.54067      -24.24469

Ca 1.0



