%chk=holoCaM-CaMKII.loop3.water2.frame367.chk
%nprocshared=20
%mem=10GB
%nosave
#b3lyp/svp scf=(tight,noincore,xqc) Test 
#IOP(5/87=12) Density=Current Pop=(MK,readradii) iop(6/33=2) iop(6/42=6)

holoCaM-CaMKII.loop3.water2.frame367 

   0  1 
C         52.51169       73.66206       16.39279
C         52.98578       73.86626       14.98641
O         54.16818       74.11468       14.79601
H         51.43147       73.40754       16.42266
H         53.08517       72.83148       16.85377
H         52.67472       74.59062       16.97923
N         52.10831       73.80953       13.94568
C         52.51042       74.01139       12.56387
C         52.15968       75.43261       12.17146
O         50.99747       75.81044       12.22507
C         51.85002       72.94491       11.68110
C         52.30273       72.98190       10.25455
O         51.86719       72.14961        9.48436
O         53.19412       73.88974        9.81351
H         51.10495       73.67190       14.14514
H         53.61116       73.87287       12.47273
H         50.74392       73.05771       11.71385
H         52.11168       71.94204       12.08461
N         53.16100       76.30023       11.85364
C         52.96688       77.73548       11.68347
C         52.07212       78.04065       10.48985
O         50.94769       78.47598       10.69406
C         54.35866       78.40565       11.60185
C         54.36929       79.93250       11.65821
C         55.83004       80.41829       11.67471
C         55.93386       81.93581       11.84109
N         57.33587       82.35326       11.89881
H         54.12346       75.93131       11.83983
H         52.47337       78.10324       12.61094
H         54.88642       78.07342       10.68878
H         54.94586       78.04478       12.47663
H         53.86419       80.25690       12.59329
H         53.83120       80.35800       10.78387
H         56.33463       80.11528       10.73040
H         56.36320       79.93984       12.52693
H         55.42683       82.23631       12.78478
H         55.42938       82.44094       10.98867
H         57.38135       83.38998       12.02405
H         57.81523       81.89616       12.70915
H         57.82714       82.09563       11.01202
N         52.50965       77.85308        9.21302
C         51.67510       78.10266        8.03503
C         50.60779       77.02144        7.82253
O         49.78073       77.20119        6.93862
C         52.54580       78.25226        6.75827
C         53.38087       77.04130        6.46477
O         53.35843       76.01064        7.31958
O         54.08105       76.99385        5.46653
H         53.48963       77.57511        9.08222
H         51.16344       79.08038        8.17327
H         53.22980       79.11870        6.87794
H         51.88357       78.45178        5.88728
N         50.55913       75.87655        8.56919
C         49.53050       74.86249        8.39761
C         49.57695       74.19777        7.03838
O         48.60282       74.31479        6.30791
H         51.25191       75.71650        9.31184
H         48.53577       75.33658        8.55693
H         49.64821       74.07153        9.16906
N         50.65190       73.44231        6.65139
C         50.70579       72.73699        5.36559
C         50.68562       71.22144        5.52637
O         50.60412       70.53465        4.51671
C         51.93549       73.21253        4.54868
C         53.30009       72.53573        4.86507
N         53.58404       71.34678        4.06084
O         53.49818       72.25153        6.21678
H         51.44723       73.35797        7.29813
H         49.80243       73.00964        4.77815
H         52.02282       74.31278        4.68406
H         51.74670       73.06143        3.46383
H         52.75966       71.02767        3.51080
H         53.85900       70.56275        4.68973
N         50.76780       70.62392        6.75170
C         50.80010       69.18714        6.95039
C         52.07235       68.69282        7.62758
O         52.14505       67.49713        7.85454
H         50.80314       71.20161        7.59680
H         50.69928       68.64332        5.98760
H         49.93148       68.90811        7.58658
N         53.09652       69.52574        8.00981
C         54.28213       69.02365        8.71746
C         55.04241       70.11892        9.47724
O         54.75331       71.29320        9.33274
C         55.18719       68.17040        7.78159
C         55.74779       68.87989        6.55977
C         56.65292       69.94784        6.68503
C         55.39743       68.44168        5.26712
C         57.17989       70.57455        5.54873
C         55.92969       69.06586        4.13193
C         56.81656       70.13736        4.26788
O         57.31222       70.73497        3.16457
H         53.00001       70.53195        7.85858
H         53.91105       68.36703        9.53446
H         54.58968       67.29972        7.44074
H         56.03656       67.75052        8.35956
H         56.96316       70.28994        7.65915
H         54.70986       67.61656        5.13144
H         57.87547       71.39629        5.66305
H         55.64498       68.72175        3.14497
H         57.92419       71.48354        3.21280
N         56.00428       69.74902       10.38071
C         56.71653       70.66828       11.27200
C         58.20711       70.57437       10.99497
O         58.75577       69.48465       11.05549
C         56.44318       70.27873       12.76215
C         54.93823       70.42165       13.10759
C         57.30313       71.13195       13.72750
C         54.57690       69.83891       14.47889
H         56.21416       68.74654       10.48142
H         56.37977       71.71823       11.12423
H         56.73520       69.21236       12.89188
H         54.33101       69.86726       12.36179
H         54.64042       71.49255       13.06760
H         57.16992       70.81839       14.78070
H         58.38592       71.00550       13.52052
H         57.04962       72.20942       13.63363
H         54.83698       68.75881       14.51174
H         55.09367       70.36180       15.30758
H         53.48560       69.94336       14.65178
N         58.93227       71.70502       10.75022
C         60.37878       71.70579       10.55202
C         61.07104       72.51833       11.64835
O         60.40979       73.00450       12.55337
C         60.68400       72.22108        9.13954
O         60.06579       71.37714        8.20465
H         58.44592       72.61315       10.72231
H         60.78923       70.67483       10.61917
H         61.78147       72.20720        8.96441
H         60.30230       73.25843        9.02354
H         60.41487       71.63650        7.31320
N         62.42973       72.65733       11.64066
C         63.21066       73.28994       12.70549
C         62.80459       74.72130       12.99415
O         62.56973       75.03084       14.15373
C         64.70149       73.25321       12.35335
H         62.94884       72.24239       10.85401
H         63.08173       72.69781       13.63950
H         65.30048       73.69027       13.18118
H         65.02845       72.20226       12.20474
H         64.90078       73.82619       11.42264
N         62.72473       75.65677       12.00772
C         62.34153       77.04321       12.26618
C         60.96060       77.11609       12.89273
O         60.81215       77.71425       13.94933
C         62.35926       77.85626       10.96492
H         62.93450       75.36666       11.03975
H         63.08330       77.50824       12.95433
H         61.63995       77.44596       10.22448
H         62.09091       78.91497       11.17273
H         63.37645       77.83731       10.51948
N         59.90151       76.51530       12.28297
C         58.52879       76.57797       12.78640
C         58.33927       75.89088       14.13779
O         57.25973       76.01807       14.70027
C         57.57107       75.94683       11.75256
C         57.55464       76.75129       10.44088
C         56.71599       76.08135        9.39273
O         55.42581       75.78858        9.62951
O         57.20310       75.80757        8.30883
H         60.08782       76.01317       11.40208
H         58.25421       77.64945       12.91629
H         56.53585       75.92665       12.15697
H         57.89026       74.89796       11.56304
H         58.57846       76.87839       10.03287
H         57.15414       77.76296       10.64925
N         59.31780       75.14975       14.72548
C         59.15254       74.52782       16.02076
H         58.97051       75.30537       16.79310
H         58.30210       73.81480       15.99740
H         60.07646       73.97261       16.29246
H         60.20850       75.00664       14.24588
Ca        54.38504       74.11018        7.00320
O         57.36548       73.06722        7.78025
H         58.25348       73.47435        7.62026
H         57.52477       72.39874        8.49042
O         56.46836       74.08096        4.79920
H         56.03115       74.96155        4.91686
H         56.65260       74.02444        3.82846

Ca 1.0



