%chk=holoCaM-CaMKII.loop4.water1.frame316.chk
%nprocshared=20
%mem=10GB
%nosave
#b3lyp/svp scf=(tight,noincore,xqc) Test 
#IOP(5/87=12) Density=Current Pop=(MK,readradii) iop(6/33=2) iop(6/42=6)

holoCaM-CaMKII.loop4.water1.frame316 

   -3  1 
C         46.51958       27.09831       70.49583
C         45.80328       28.28472       71.06099
O         46.43476       29.16428       71.62428
H         47.61081       27.16532       70.68337
H         46.12700       26.17663       70.97709
H         46.33585       27.04133       69.40252
N         44.45307       28.35402       70.94942
C         43.63693       29.43035       71.49449
C         43.81234       29.51247       73.00983
O         43.69282       28.49971       73.68441
C         42.17322       29.16000       71.10544
C         41.22403       30.22118       71.53727
O         40.04492       30.09552       71.27949
O         41.64510       31.30491       72.20041
H         43.98064       27.58160       70.45236
H         43.93603       30.39529       71.02247
H         41.84187       28.19477       71.54264
H         42.10575       29.09594       69.99619
N         44.08809       30.71003       73.60212
C         44.40233       30.89043       75.01454
C         43.21853       31.52206       75.75258
O         42.82956       30.97727       76.77655
C         45.72448       31.71724       75.15622
C         46.86150       31.06688       74.31646
C         46.13687       31.82663       76.63769
C         48.18821       31.83124       74.32069
H         44.10845       31.54761       73.01172
H         44.59038       29.90062       75.48975
H         45.54759       32.74283       74.76142
H         46.54053       31.03100       73.25731
H         47.04533       30.02679       74.66432
H         46.35247       30.81968       77.05626
H         47.03784       32.46171       76.75786
H         45.33469       32.30045       77.23898
H         48.04348       32.86970       73.95828
H         48.64621       31.85278       75.32900
H         48.90341       31.31992       73.64041
N         42.57102       32.63582       75.28995
C         41.43910       33.25259       75.99867
C         40.06910       32.69544       75.59047
O         39.06917       33.17290       76.10811
C         41.52793       34.79866       75.94229
C         41.36793       35.42419       74.58458
O         41.48093       36.75972       74.45411
O         41.11921       34.74855       73.60428
H         42.86961       33.03853       74.39028
H         41.52421       33.01657       77.08215
H         42.51595       35.10184       76.35018
H         40.74162       35.23233       76.59761
N         39.94606       31.63067       74.74921
C         38.68534       30.95757       74.46299
C         37.67084       31.80448       73.72021
O         36.55915       31.96276       74.20231
H         40.79423       31.20092       74.36665
H         38.24929       30.58390       75.41409
H         38.89911       30.06849       73.82839
N         37.97503       32.31619       72.49886
C         37.03068       33.01081       71.61657
C         36.83946       32.24875       70.30516
O         36.20994       32.77164       69.39598
C         37.48325       34.47550       71.39103
C         38.88388       34.69053       70.87001
O         39.33346       35.82435       70.83065
O         39.68322       33.65703       70.55477
H         38.93067       32.15621       72.15977
H         36.02240       33.07603       72.08160
H         37.43869       34.97100       72.38501
H         36.75975       34.99553       70.72581
N         37.32052       30.98300       70.15623
C         37.23036       30.19778       68.94287
C         37.99963       30.82543       67.81131
O         37.47518       30.87186       66.70924
H         37.76962       30.51782       70.95095
H         36.17081       30.01452       68.65951
H         37.70054       29.20919       69.14235
N         39.27297       31.28095       68.00876
C         40.14017       31.76905       66.93438
C         41.56416       32.03385       67.41903
O         41.82353       32.07378       68.61394
C         39.53617       32.98085       66.16788
C         39.21290       34.23002       67.00388
C         40.43015       35.04749       67.34982
N         40.83479       36.04596       66.52942
O         41.04589       34.82676       68.37933
H         39.65020       31.21552       68.96395
H         40.23013       30.92916       66.21028
H         38.58237       32.65780       65.71125
H         40.18425       33.26613       65.31067
H         38.60183       33.99154       67.90098
H         38.56675       34.87711       66.37034
H         40.32946       36.24742       65.65355
H         41.65967       36.61665       66.76487
N         42.56219       32.13228       66.49944
C         43.97894       32.27050       66.81944
C         44.53487       33.48488       66.09130
O         44.37642       33.57920       64.88208
C         44.70777       30.94518       66.44643
C         46.23996       31.07487       66.46293
C         44.30171       29.83657       67.44090
H         42.31269       32.03049       65.50336
H         44.14243       32.41071       67.90362
H         44.41703       30.64367       65.41621
H         46.57759       31.81749       65.71058
H         46.60721       31.37606       67.46251
H         46.70594       30.10199       66.19548
H         43.20425       29.67604       67.44455
H         44.79054       28.87399       67.18174
H         44.61601       30.11227       68.47347
N         45.25629       34.42532       66.77349
C         45.89372       35.57812       66.15400
C         47.39554       35.36049       66.13869
O         47.84690       34.29229       66.52020
C         45.48059       36.91900       66.83257
C         46.28058       37.34499       68.05187
N         46.23921       36.66163       69.21041
O         46.97065       38.35199       67.98460
H         45.44718       34.27130       67.76259
H         45.55568       35.65685       65.09828
H         44.39050       36.92236       67.04968
H         45.65057       37.71623       66.07693
H         45.64837       35.83699       69.29953
H         46.78929       36.97308       70.02527
N         48.23284       36.32949       65.69343
C         49.67641       36.15681       65.57972
C         50.34633       35.78576       66.90552
O         51.07237       34.80254       66.92662
C         50.27999       37.42978       64.96503
C         51.74985       37.28443       64.68309
C         52.21748       36.27413       63.82317
C         52.66601       38.16617       65.27235
C         53.58318       36.14392       63.56822
C         54.03098       38.03879       65.00988
C         54.49444       37.02479       64.15841
O         55.80955       36.88991       63.89949
H         47.81679       37.22242       65.38857
H         49.85455       35.32328       64.86573
H         50.08381       38.29047       65.64205
H         49.76865       37.63583       63.99848
H         51.52978       35.58422       63.35010
H         52.32337       38.95402       65.93186
H         53.93116       35.35821       62.90941
H         54.72551       38.72924       65.46943
H         56.47023       37.48155       64.28609
N         50.14081       36.50169       68.04797
C         50.70995       36.12520       69.35006
C         50.33071       34.70144       69.74619
O         51.23181       33.92707       70.04010
C         50.26350       37.12077       70.44771
C         51.09142       38.41626       70.39521
C         50.56931       39.44200       71.35900
O         49.45990       39.92421       71.19574
O         51.32898       39.85484       72.39205
H         49.52132       37.32423       67.99399
H         51.82290       36.15204       69.30300
H         50.43430       36.68550       71.45829
H         49.17434       37.31788       70.34529
H         51.09150       38.85648       69.37696
H         52.14207       38.16152       70.66635
N         49.03502       34.27651       69.77157
C         48.65409       32.91365       70.17183
C         49.30020       31.85683       69.27580
O         49.43658       30.72165       69.71063
C         47.11563       32.73016       70.13847
C         46.37052       33.66667       71.11338
C         44.88029       33.68320       70.87619
O         44.00893       33.61410       71.88453
O         44.43104       33.87075       69.76578
H         48.30956       34.94792       69.48738
H         49.01479       32.74621       71.21153
H         46.83725       31.67811       70.36910
H         46.79611       32.95304       69.10063
H         46.72036       34.70025       70.96649
H         46.59373       33.39852       72.16527
N         49.70736       32.15192       68.01049
C         50.34443       31.19267       67.13592
H         51.30640       30.85765       67.57757
H         49.67818       30.32105       66.96959
H         50.55769       31.66746       66.15250
H         49.55376       33.09202       67.64173
Ca        41.83322       33.71231       71.25508
O         42.83437       36.63423       70.44368
H         42.70680       37.22231       71.23006
H         42.65572       37.21768       69.66386

Ca 1.0



