%chk=holoCaM.loop3.water2.frame419.chk
%nprocshared=20
%mem=10GB
%nosave
#b3lyp/svp scf=(tight,noincore,xqc) Test 
#IOP(5/87=12) Density=Current Pop=(MK,readradii) iop(6/33=2) iop(6/42=6)

holoCaM.loop3.water2.frame419 

   0  1 
C        -12.62795       86.44455       67.42231
C        -13.31380       85.96662       68.66793
O        -14.51637       86.14969       68.79129
H        -11.54679       86.18855       67.43126
H        -13.09076       85.95569       66.53886
H        -12.73317       87.54440       67.33360
N        -12.60920       85.30780       69.62680
C        -13.23181       84.72930       70.80837
C        -13.82277       85.80714       71.71505
O        -13.09283       86.64103       72.23064
C        -12.20628       83.82133       71.51204
C        -12.76893       82.95008       72.58540
O        -13.93671       83.01606       72.92288
O        -11.96751       82.03647       73.14601
H        -11.60094       85.15079       69.46888
H        -14.04558       84.06847       70.45644
H        -11.36419       84.42112       71.91841
H        -11.79995       83.12078       70.74843
N        -15.17268       85.85007       71.90767
C        -15.88865       86.86788       72.68388
C        -15.54801       86.84742       74.17735
O        -15.74291       87.86601       74.82603
C        -17.41501       86.63395       72.46984
C        -18.37540       87.52323       73.28756
C        -19.85323       87.12937       73.06053
C        -20.45228       87.55528       71.70617
N        -20.67536       89.00211       71.64244
H        -15.73546       85.13214       71.42426
H        -15.63031       87.87140       72.27814
H        -17.63659       85.57885       72.74827
H        -17.62783       86.75382       71.38562
H        -18.20562       88.60212       73.09337
H        -18.17145       87.32986       74.36071
H        -20.48344       87.57509       73.85987
H        -19.93392       86.02463       73.16312
H        -21.44120       87.05593       71.59908
H        -19.81934       87.21908       70.85789
H        -21.32606       89.29322       72.40943
H        -19.77770       89.52783       71.72492
H        -21.12340       89.24059       70.72832
N        -15.17607       85.69878       74.80926
C        -15.06147       85.56044       76.26911
C        -13.72094       84.99102       76.72147
O        -13.52479       84.87164       77.92356
C        -16.21599       84.67439       76.81873
C        -16.26431       83.31578       76.17515
O        -16.49512       83.27196       74.85684
O        -16.09448       82.29384       76.81752
H        -15.04157       84.87007       74.22329
H        -15.16691       86.55435       76.75643
H        -17.18668       85.17697       76.61627
H        -16.11410       84.57370       77.92115
N        -12.75109       84.61629       75.84379
C        -11.47556       84.06478       76.26281
C        -11.60828       82.72422       76.95453
O        -11.08091       82.56426       78.04599
H        -12.89354       84.73831       74.83291
H        -10.94058       84.79288       76.91155
H        -10.85297       83.89959       75.35681
N        -12.24709       81.69429       76.33247
C        -12.23230       80.31224       76.80515
C        -11.53904       79.40614       75.77976
O        -11.62663       78.19332       75.90874
C        -13.65791       79.81737       77.16221
C        -14.65873       79.71362       76.03540
N        -15.88468       79.19613       76.28013
O        -14.37964       80.08130       74.90724
H        -12.71760       81.88839       75.44004
H        -11.65553       80.22484       77.75253
H        -14.08218       80.47878       77.94892
H        -13.55670       78.80102       77.60305
H        -16.14170       78.87519       77.22535
H        -16.57520       79.10372       75.52130
N        -10.77001       79.92556       74.77213
C        -10.07101       79.12438       73.77799
C        -10.95655       78.52004       72.69199
O        -10.42126       77.79770       71.86852
H        -10.58733       80.93705       74.75325
H         -9.49977       78.32451       74.29915
H         -9.33348       79.77045       73.25418
N        -12.30240       78.75371       72.62510
C        -13.19790       78.09773       71.66642
C        -14.09958       79.09827       70.95411
O        -14.70909       79.90663       71.63412
C        -14.12353       77.14826       72.45122
C        -13.35742       76.10271       73.21903
C        -13.41911       76.08002       74.62147
C        -12.58145       75.14280       72.54888
C        -12.71111       75.11795       75.34387
C        -11.87749       74.17669       73.27382
C        -11.93982       74.16262       74.67537
O        -11.26664       73.23784       75.38830
H        -12.73103       79.35894       73.32948
H        -12.63931       77.49195       70.92197
H        -14.82394       76.63755       71.75413
H        -14.73158       77.75418       73.15875
H        -14.00969       76.81193       75.15867
H        -12.52452       75.13892       71.46750
H        -12.76379       75.11677       76.42512
H        -11.28529       73.44028       72.74567
H        -10.72607       72.55586       74.96531
N        -14.33194       79.01547       69.60189
C        -15.37632       79.80897       68.94345
C        -16.48110       78.89600       68.41873
O        -16.24070       78.07014       67.55335
C        -14.82770       80.77567       67.84734
C        -14.15917       80.07788       66.63435
C        -13.88700       81.79191       68.50803
C        -13.75900       81.05638       65.52580
H        -13.82411       78.31459       69.04552
H        -15.85871       80.47412       69.68793
H        -15.70450       81.34401       67.46163
H        -14.87816       79.38261       66.16205
H        -13.26710       79.50148       66.95730
H        -13.60313       82.60546       67.81086
H        -14.42004       82.26370       69.35241
H        -12.97016       81.29759       68.89172
H        -13.36304       80.49174       64.65591
H        -14.64367       81.63809       65.19307
H        -12.96783       81.75588       65.86026
N        -17.74327       78.99986       68.93091
C        -18.88532       78.23347       68.43389
C        -19.27640       78.68238       67.02900
O        -18.64029       79.57249       66.48550
C        -20.07963       78.42301       69.39333
O        -20.46364       79.77075       69.43477
H        -17.89766       79.65521       69.70920
H        -18.63051       77.15055       68.43129
H        -19.76721       78.08376       70.40733
H        -20.94369       77.80359       69.07166
H        -21.08346       79.86117       70.20404
N        -20.34781       78.13451       66.39141
C        -20.84517       78.60698       65.10057
C        -21.26406       80.06749       65.18079
O        -20.83521       80.85683       64.35264
C        -22.04832       77.76707       64.65689
H        -20.85453       77.36666       66.85948
H        -20.05588       78.48644       64.32422
H        -22.41597       78.11956       63.66884
H        -21.75007       76.70193       64.55727
H        -22.87779       77.83887       65.39276
N        -22.08769       80.49099       66.18299
C        -22.55610       81.86817       66.33848
C        -21.40739       82.85771       66.34385
O        -21.43353       83.81171       65.57846
C        -23.34467       81.99922       67.65092
H        -22.37841       79.79522       66.88723
H        -23.24121       82.12150       65.50001
H        -23.72329       83.03630       67.77395
H        -24.21263       81.30651       67.64752
H        -22.70259       81.75123       68.52484
N        -20.35272       82.66882       67.17648
C        -19.19904       83.56212       67.26695
C        -18.53945       83.72119       65.90948
O        -18.46100       84.84230       65.42631
C        -18.22584       83.00687       68.33117
C        -18.87519       83.13029       69.72032
C        -18.18959       82.32456       70.77464
O        -16.89656       82.51033       71.06737
O        -18.83837       81.53257       71.43920
H        -20.37238       81.82165       67.76390
H        -19.53404       84.57303       67.59632
H        -17.26401       83.56678       68.34157
H        -18.00848       81.94347       68.08994
H        -19.93105       82.78931       69.70331
H        -18.88140       84.20299       70.01398
N        -18.08457       82.64227       65.21851
C        -17.52145       82.72201       63.88604
H        -16.49298       82.31174       63.89122
H        -18.14368       82.11665       63.19339
H        -17.48540       83.76231       63.50034
H        -18.16452       81.71294       65.64052
Ca       -16.42123       81.84281       73.15177
O        -18.54697       80.77371       74.82179
H        -18.68450       81.50480       75.47465
H        -19.26681       80.12331       75.01557
O        -17.22224       78.76248       72.64005
H        -17.08514       77.95001       72.09167
H        -18.07775       79.13717       72.31481

Ca 1.0



