%chk=holoCaM-CaMKII.loop3.water2.frame248.chk
%nprocshared=20
%mem=10GB
%nosave
#b3lyp/svp scf=(tight,noincore,xqc) Test 
#IOP(5/87=12) Density=Current Pop=(MK,readradii) iop(6/33=2) iop(6/42=6)

holoCaM-CaMKII.loop3.water2.frame248 

   0  1 
C         87.16986        7.43697       58.65839
C         85.80869        7.70998       59.21675
O         84.92045        6.88183       59.06807
H         87.90912        7.42699       59.48762
H         87.19411        6.45066       58.14857
H         87.44234        8.23069       57.93325
N         85.58117        8.85629       59.91259
C         84.30480        9.13241       60.54754
C         83.20848        9.33591       59.51751
O         83.32771       10.19342       58.65353
C         84.40487       10.34322       61.48007
C         83.18768       10.49423       62.35086
O         82.23300        9.73859       62.27959
O         83.16172       11.47975       63.24312
H         86.36316        9.51720       60.04453
H         84.07216        8.26670       61.20088
H         84.57490       11.27256       60.89357
H         85.26757       10.19757       62.16534
N         82.09306        8.56571       59.58460
C         80.98285        8.62113       58.64522
C         80.35463       10.01489       58.58799
O         80.24140       10.54543       57.49203
C         79.98195        7.49949       59.01600
C         78.98087        7.14926       57.90527
C         78.22122        5.85843       58.27595
C         77.34673        5.30374       57.13986
N         76.25352        6.20490       56.78174
H         82.04801        7.87216       60.34419
H         81.38492        8.36566       57.63879
H         79.46479        7.72419       59.97504
H         80.59077        6.57834       59.16413
H         79.55075        6.95209       56.97059
H         78.28506        7.99649       57.73281
H         77.60704        6.02418       59.18736
H         78.96634        5.06355       58.50595
H         76.91608        4.33437       57.47823
H         77.97591        5.09830       56.24477
H         75.66287        5.74233       56.05311
H         75.66211        6.40109       57.62138
H         76.62737        7.09621       56.38632
N         79.96895       10.68630       59.71869
C         79.36119       12.02619       59.69558
C         80.23086       13.12121       60.33564
O         79.76240       14.24889       60.41894
C         77.94251       11.98856       60.31754
C         77.87182       11.67036       61.78532
O         78.87562       11.43190       62.42947
O         76.67547       11.66319       62.40218
H         80.11847       10.22887       60.62934
H         79.20671       12.35555       58.64506
H         77.32954       11.24175       59.76933
H         77.46871       12.98430       60.17419
N         81.51787       12.90169       60.73831
C         82.39201       13.96350       61.24168
C         82.07815       14.47240       62.64570
O         82.74740       15.39892       63.08044
H         81.93345       11.97564       60.58366
H         82.36940       14.81244       60.52304
H         83.43624       13.58598       61.27094
N         81.10191       13.92207       63.41974
C         80.73485       14.41097       64.75568
C         81.82799       14.28969       65.83004
O         81.62512       14.81380       66.91634
C         79.46903       13.66530       65.24998
C         79.74568       12.20245       65.66541
N         78.50905       11.51312       66.01175
O         80.44700       11.50456       64.67394
H         80.55201       13.16235       63.00804
H         80.47671       15.48681       64.63559
H         78.69197       13.70449       64.45503
H         79.06300       14.19014       66.14183
H         78.01622       12.05940       66.75364
H         78.76719       10.59967       66.44702
N         82.96382       13.56273       65.63103
C         84.00617       13.35448       66.62491
C         84.11193       11.90720       67.10181
O         85.01664       11.64089       67.88037
H         83.10559       13.11524       64.73256
H         83.83606       13.98193       67.52597
H         84.97268       13.66983       66.17595
N         83.19998       10.94290       66.76071
C         83.18156        9.60070       67.35272
C         83.03170        8.50480       66.30773
O         82.15473        8.62270       65.46300
C         81.95368        9.45167       68.27261
C         81.85656       10.49225       69.35457
C         82.38658       10.25969       70.63350
C         81.17319       11.69077       69.10075
C         82.22964       11.21660       71.64265
C         81.01329       12.64198       70.10741
C         81.53772       12.40654       71.38537
O         81.37482       13.31038       72.37191
H         82.41787       11.19512       66.14535
H         84.07908        9.41955       67.98529
H         81.98137        8.44187       68.74237
H         81.01171        9.48355       67.68131
H         82.91109        9.33746       70.85168
H         80.75044       11.88099       68.12614
H         82.63532       11.02806       72.62850
H         80.47250       13.55510       69.89353
H         80.88325       14.13334       72.23641
N         83.73507        7.33645       66.40791
C         83.42683        6.15173       65.60138
C         82.93550        5.01359       66.49158
O         83.49251        4.78757       67.55722
C         84.59100        5.71263       64.67332
C         85.85894        5.27109       65.44082
C         84.88097        6.83422       63.66157
C         86.93422        4.68337       64.52276
H         84.45384        7.25014       67.14249
H         82.59193        6.37333       64.90598
H         84.22231        4.83427       64.09497
H         85.58807        4.46843       66.15741
H         86.28457        6.12406       66.01004
H         85.60380        6.51149       62.88654
H         83.94439        7.10003       63.13211
H         85.26990        7.74041       64.17138
H         86.52486        3.81903       63.95581
H         87.32008        5.43913       63.81000
H         87.79001        4.33000       65.13440
N         81.89369        4.23649       66.07930
C         81.31685        3.12971       66.83842
C         81.57566        1.81035       66.12403
O         82.27299        1.80902       65.12440
C         79.80645        3.39090       66.99299
O         79.18971        3.42633       65.73290
H         81.48211        4.42828       65.15557
H         81.76693        3.05783       67.85247
H         79.66969        4.36746       67.50923
H         79.33476        2.59784       67.61123
H         78.25247        3.71175       65.88779
N         81.03257        0.64226       66.57269
C         81.19279       -0.64043       65.88608
C         80.70857       -0.55796       64.44763
O         81.43700       -0.95800       63.55077
C         80.40938       -1.73566       66.62161
H         80.45239        0.66843       67.42465
H         82.26527       -0.93907       65.89290
H         80.54488       -2.71337       66.11015
H         80.78080       -1.83509       67.66367
H         79.32446       -1.49669       66.65075
N         79.49503       -0.00954       64.16049
C         78.95408        0.11964       62.80900
C         79.90994        0.84540       61.87792
O         80.22533        0.32454       60.81737
C         77.62440        0.88815       62.85971
H         78.93772        0.35663       64.94849
H         78.75094       -0.89278       62.39578
H         77.77356        1.90853       63.27747
H         77.19244        0.98397       61.84094
H         76.89543        0.35205       63.50319
N         80.40385        2.06223       62.22149
C         81.27784        2.86735       61.36914
C         82.56058        2.12545       61.02484
O         82.92962        2.10319       59.85915
C         81.58617        4.21332       62.05739
C         80.29609        5.04224       62.24639
C         80.54628        6.29825       63.01621
O         79.90647        6.50518       64.18193
O         81.31951        7.13882       62.59541
H         80.13900        2.42626       63.14871
H         80.75466        3.11009       60.41659
H         82.29259        4.80406       61.43206
H         82.07587        4.01466       63.03210
H         79.53089        4.46876       62.80573
H         79.86742        5.29688       61.25363
N         83.26680        1.46223       61.98078
C         84.48545        0.72214       61.72368
H         85.28933        1.09975       62.38969
H         84.31656       -0.35340       61.94544
H         84.82570        0.81655       60.67178
H         82.90809        1.44558       62.93765
Ca        79.59707        9.42152       64.29446
O         76.97729        8.44023       63.20001
H         76.96816        9.31584       63.66164
H         76.78946        7.78498       63.91776
O         78.96113        7.81334       66.60872
H         79.60822        7.28111       67.13567
H         78.21330        7.99584       67.23036

Ca 1.0



