%chk=holoCaM-CaMKII.loop3.water1.frame476.chk
%nprocshared=20
%mem=10GB
%nosave
#b3lyp/svp scf=(tight,noincore,xqc) Test 
#IOP(5/87=12) Density=Current Pop=(MK,readradii) iop(6/33=2) iop(6/42=6)

holoCaM-CaMKII.loop3.water1.frame476 

   0  1 
C         79.16502       66.29930       55.00544
C         80.02769       66.09363       53.79775
O         80.88158       66.93040       53.53778
H         78.42205       65.48237       55.11697
H         79.80200       66.32946       55.91405
H         78.62193       67.26262       54.90838
N         79.87577       64.98961       53.01067
C         80.70503       64.76302       51.82905
C         80.36761       65.82869       50.77986
O         79.32129       66.45262       50.90544
C         80.48468       63.30852       51.32716
C         81.62290       62.71620       50.53771
O         82.24055       61.60888       50.99227
O         81.98399       63.19748       49.48443
H         79.17216       64.28478       53.28126
H         81.75799       64.86374       52.16708
H         79.52312       63.23479       50.77452
H         80.40039       62.64933       52.21881
N         81.21178       66.13301       49.75307
C         80.93760       67.19268       48.77763
C         80.79963       66.62650       47.35571
O         80.41562       67.35876       46.45577
C         82.07296       68.24008       48.88838
C         81.73744       69.62030       48.30003
C         82.94547       70.56581       48.42465
C         82.58681       72.00233       48.01708
N         83.76658       72.86824       48.05358
H         82.10373       65.63364       49.68641
H         79.97498       67.68410       49.03503
H         82.99891       67.82069       48.43544
H         82.27739       68.41683       49.96911
H         80.87889       70.03707       48.87259
H         81.45180       69.54670       47.23100
H         83.76246       70.18283       47.77438
H         83.31050       70.58595       49.47571
H         81.81893       72.39765       48.72007
H         82.16116       72.01275       46.99004
H         83.48299       73.84641       47.81597
H         84.19648       72.86313       49.00715
H         84.46850       72.54233       47.34972
N         81.13008       65.32966       47.08521
C         81.12679       64.69409       45.77299
C         80.64645       63.23131       45.83377
O         80.63254       62.59218       44.79076
C         82.54688       64.80689       45.17065
C         83.62179       64.48450       46.17099
O         83.67151       63.29395       46.78775
O         84.41054       65.35545       46.50424
H         81.56406       64.78288       47.82519
H         80.43990       65.22452       45.07692
H         82.69736       65.86737       44.86784
H         82.64419       64.18440       44.25647
N         80.19615       62.64258       46.98545
C         79.64306       61.29552       47.04793
C         80.60791       60.14130       46.81515
O         80.12502       59.01718       46.83324
H         80.13490       63.18817       47.85259
H         78.81410       61.22352       46.31022
H         79.20289       61.14031       48.05758
N         81.94716       60.29235       46.58042
C         82.80226       59.13933       46.26931
C         82.93538       58.15483       47.42773
O         83.32569       57.02171       47.18396
C         84.19800       59.56698       45.76817
C         85.08831       60.06036       46.87851
N         86.30571       59.51431       47.09075
O         84.70236       60.95331       47.60651
H         82.34469       61.23762       46.54913
H         82.30693       58.62177       45.41738
H         84.07464       60.36129       45.00077
H         84.69184       58.70067       45.27739
H         86.66560       58.75594       46.49398
H         86.89555       59.86820       47.85513
N         82.66857       58.52754       48.71348
C         82.69663       57.60820       49.83720
C         83.69807       57.97443       50.91346
O         83.56432       57.41046       51.99122
H         82.39632       59.50042       48.91704
H         82.88329       56.55633       49.53103
H         81.68126       57.63682       50.29036
N         84.73768       58.85079       50.72242
C         85.65523       59.21132       51.80974
C         85.69738       60.71395       52.03968
O         85.13890       61.46422       51.25119
C         87.05229       58.56085       51.62704
C         87.94435       59.04525       50.49989
C         88.43985       60.36231       50.48049
C         88.36247       58.15144       49.49468
C         89.32626       60.77530       49.48238
C         89.25096       58.56857       48.49546
C         89.73614       59.88392       48.48795
O         90.59950       60.30006       47.53914
H         84.89346       59.25873       49.78940
H         85.26893       58.78229       52.75975
H         86.88244       57.46598       51.52360
H         87.63135       58.69960       52.56459
H         88.16861       61.07282       51.24510
H         88.01479       57.12610       49.48817
H         89.70367       61.79035       49.48919
H         89.56717       57.86774       47.73279
H         90.91916       59.71377       46.83865
N         86.32370       61.21417       53.14564
C         86.37071       62.63181       53.49689
C         87.81526       63.07582       53.65555
O         88.53778       62.46920       54.43592
C         85.61658       62.87494       54.84046
C         84.14601       62.38554       54.81418
C         85.68551       64.35905       55.26331
C         83.23753       63.12001       53.82814
H         86.75837       60.54800       53.80312
H         85.88248       63.25300       52.71564
H         86.12473       62.28084       55.63315
H         83.71361       62.51034       55.83109
H         84.12232       61.30018       54.57849
H         85.24045       65.01872       54.49012
H         85.15163       64.51351       56.22396
H         86.73575       64.68118       55.41707
H         83.59804       63.00184       52.78910
H         82.21460       62.69566       53.89468
H         83.16990       64.19948       54.07105
N         88.27118       64.19165       53.01672
C         89.59486       64.76538       53.24766
C         89.46587       66.13202       53.91501
O         88.35609       66.56917       54.17600
C         90.36874       64.83146       51.92263
O         89.71570       65.65646       50.99371
H         87.63086       64.69945       52.38716
H         90.18280       64.12578       53.94169
H         90.45276       63.80996       51.49353
H         91.41512       65.17546       52.09371
H         90.15612       66.54531       51.03568
N         90.57404       66.85026       54.25193
C         90.53464       68.13640       54.95088
C         89.76969       69.19596       54.18244
O         88.90865       69.83652       54.76913
C         91.95604       68.64190       55.20998
H         91.49607       66.44826       54.02454
H         90.05397       67.99877       55.94627
H         91.92087       69.60281       55.76836
H         92.51172       67.90333       55.82543
H         92.49979       68.80034       54.25460
N         90.02126       69.42235       52.86146
C         89.32342       70.43061       52.06384
C         87.82227       70.31681       52.22754
O         87.17453       71.31793       52.50128
C         89.69858       70.28355       50.58364
H         90.71670       68.81969       52.39454
H         89.63596       71.44623       52.39427
H         90.79494       70.40510       50.45379
H         89.40295       69.28312       50.19940
H         89.18746       71.06290       49.97812
N         87.21522       69.10461       52.13636
C         85.78385       68.90916       52.33444
C         85.34889       69.39376       53.70423
O         84.49725       70.26904       53.77906
C         85.41683       67.42263       52.18062
C         85.69531       66.92971       50.76174
C         85.28123       65.51043       50.59413
O         86.12424       64.61923       50.05430
O         84.12930       65.18200       50.81310
H         87.81355       68.28711       51.94629
H         85.22770       69.48842       51.56138
H         84.32878       67.30416       52.38636
H         85.98168       66.80204       52.90814
H         86.76604       67.02124       50.48611
H         85.10154       67.54402       50.05039
N         85.89040       68.86804       54.83515
C         85.49153       69.29770       56.15559
H         84.41072       69.09301       56.30824
H         86.07159       68.74160       56.92254
H         85.68836       70.38378       56.27701
H         86.61112       68.14071       54.76157
Ca        84.94664       63.36985       48.64102
O         87.51149       62.57990       47.83191
H         88.04264       63.34337       48.17097
H         87.97281       62.29505       47.00456

Ca 1.0



