%chk=holoCaM-CaMKII.loop3.water2.frame131.chk
%nprocshared=20
%mem=10GB
%nosave
#b3lyp/svp scf=(tight,noincore,xqc) Test 
#IOP(5/87=12) Density=Current Pop=(MK,readradii) iop(6/33=2) iop(6/42=6)

holoCaM-CaMKII.loop3.water2.frame131 

   0  1 
C         42.27500       32.97706       79.12591
C         42.83096       32.13406       80.22934
O         42.35829       31.01749       80.39392
H         41.19003       33.13706       79.30524
H         42.77756       33.96428       79.07616
H         42.40867       32.45015       78.15848
N         43.81788       32.60711       81.04794
C         44.33213       31.83460       82.16701
C         43.91634       32.53308       83.43695
O         44.48500       33.56432       83.77184
C         45.85994       31.64987       82.05079
C         46.34818       30.59304       82.99915
O         47.22359       30.82949       83.81320
O         45.81215       29.36132       82.91423
H         44.18182       33.56156       80.90221
H         43.86678       30.82548       82.15287
H         46.39312       32.61613       82.19429
H         46.09747       31.29848       81.02878
N         42.83184       32.08324       84.13087
C         42.29427       32.80493       85.27757
C         43.06087       32.46768       86.54445
O         42.80094       33.09591       87.56141
C         40.79386       32.51002       85.48687
C         39.95711       32.72308       84.21206
C         38.46575       32.48648       84.48543
C         37.64709       32.29202       83.19684
N         37.72113       33.43444       82.28676
H         42.32767       31.25941       83.77195
H         42.37366       33.89716       85.06987
H         40.41300       33.17526       86.29422
H         40.66962       31.45372       85.81156
H         40.28873       31.99281       83.44708
H         40.10470       33.74981       83.81017
H         38.06369       33.32606       85.09479
H         38.34603       31.54795       85.06908
H         36.58618       32.11449       83.48002
H         38.01420       31.38209       82.67085
H         37.11675       33.23643       81.45631
H         37.37788       34.29990       82.76096
H         38.69980       33.57048       81.94619
N         44.01901       31.49121       86.56191
C         44.81960       31.17197       87.73498
C         46.26768       31.62561       87.53790
O         47.04558       31.51753       88.47506
C         44.64211       29.68244       88.10337
C         45.11974       28.73396       87.04440
O         44.33734       27.97385       86.49583
O         46.42250       28.68909       86.72720
H         44.22812       30.96081       85.70366
H         44.45278       31.74905       88.61099
H         43.55807       29.50233       88.28290
H         45.18335       29.45469       89.04562
N         46.66884       32.24065       86.38116
C         47.93222       32.94007       86.21592
C         49.19575       32.11055       86.23733
O         50.25041       32.72400       86.14530
H         46.01013       32.34537       85.59996
H         48.00236       33.70902       87.01549
H         47.91399       33.47471       85.24057
N         49.21610       30.75316       86.37470
C         50.48256       30.03561       86.51850
C         51.35780       30.07335       85.26785
O         52.52382       29.72285       85.38464
C         50.27362       28.57911       86.97494
C         49.75678       27.70065       85.86834
N         50.45802       26.62048       85.46259
O         48.70500       27.97247       85.31965
H         48.33038       30.24313       86.46801
H         51.02486       30.54528       87.34666
H         49.57368       28.55641       87.83817
H         51.24824       28.17619       87.32621
H         51.35522       26.36661       85.90161
H         50.09285       26.03678       84.70116
N         50.87247       30.44113       84.04203
C         51.71359       30.51867       82.85511
C         51.32209       29.57228       81.73571
O         52.00353       29.61454       80.72063
H         49.87981       30.69433       83.93784
H         52.77433       30.30424       83.10095
H         51.66864       31.55944       82.46710
N         50.25394       28.71954       81.80047
C         49.88346       27.86502       80.66521
C         48.44403       27.38683       80.74012
O         47.88050       27.34452       81.82302
C         50.90496       26.71553       80.44270
C         51.08722       25.75454       81.60860
C         52.31759       25.70913       82.29438
C         50.06616       24.86740       81.99838
C         52.51914       24.80708       83.34492
C         50.27288       23.95913       83.04637
C         51.49737       23.92660       83.72379
O         51.67850       23.05198       84.73520
H         49.65728       28.73572       82.63937
H         49.89187       28.51906       79.76441
H         51.88508       27.18483       80.21931
H         50.63038       26.12990       79.53931
H         53.12765       26.37207       82.01787
H         49.11532       24.86130       81.48515
H         53.47131       24.79121       83.86171
H         49.48018       23.27985       83.33477
H         52.50764       23.00273       85.23324
N         47.75883       27.08839       79.59175
C         46.34056       26.72726       79.58257
C         46.12194       25.33298       79.03105
O         47.04182       24.71728       78.50976
C         45.47268       27.77767       78.80850
C         45.83942       27.87650       77.30400
C         45.56198       29.14351       79.49756
C         44.88833       28.77610       76.50494
H         48.25428       27.15255       78.68960
H         45.96518       26.69141       80.62670
H         44.41047       27.45500       78.87437
H         45.77689       26.86486       76.85067
H         46.87626       28.25380       77.17893
H         45.24813       29.04024       80.55054
H         46.59860       29.53962       79.45708
H         44.87343       29.88319       79.04326
H         43.84237       28.41272       76.59881
H         44.94019       29.83192       76.83911
H         45.17348       28.75629       75.43226
N         44.89089       24.76850       79.16355
C         44.52758       23.43652       78.70394
C         43.30513       23.51463       77.79986
O         42.82350       24.60489       77.53293
C         44.23814       22.56735       79.94028
O         43.17167       23.10300       80.67500
H         44.16571       25.30402       79.66264
H         45.36208       22.96385       78.14114
H         45.15341       22.54351       80.57351
H         43.99439       21.52826       79.63195
H         43.06047       22.52011       81.46973
N         42.72797       22.38267       77.31128
C         41.48608       22.38944       76.54330
C         40.34190       22.94980       77.37489
O         39.66080       23.85738       76.91942
C         41.13252       20.96473       76.10025
H         43.17290       21.47600       77.51992
H         41.61728       22.99737       75.61972
H         41.94657       20.55355       75.46643
H         40.99218       20.29644       76.97667
H         40.19533       20.97272       75.50292
N         40.08835       22.44860       78.61810
C         38.98408       22.88176       79.47162
C         38.99387       24.37780       79.71154
O         37.97968       25.01717       79.46826
C         39.04335       22.14824       80.81767
H         40.71885       21.71344       78.97476
H         38.02153       22.60879       78.98410
H         38.98333       21.05118       80.65484
H         39.99131       22.37648       81.35151
H         38.18909       22.45300       81.45963
N         40.10970       25.00590       80.17413
C         40.16940       26.44490       80.42472
C         39.79152       27.20985       79.16993
O         38.86732       28.00936       79.22213
C         41.57088       26.86604       80.91459
C         41.91834       26.22602       82.27456
C         43.26447       26.63517       82.79548
O         43.68381       26.15583       83.98125
O         43.98271       27.39160       82.16434
H         40.95150       24.43278       80.32467
H         39.44327       26.71040       81.22623
H         41.58889       27.97204       81.03894
H         42.33134       26.59119       80.15454
H         41.91837       25.12050       82.19844
H         41.15512       26.52849       83.02266
N         40.43121       26.96883       77.99386
C         40.07539       27.59923       76.73963
H         39.25238       28.33534       76.85330
H         40.96242       28.11728       76.32150
H         39.74469       26.81747       76.02259
H         41.18496       26.27383       77.97491
Ca        46.29718       27.54718       84.15131
O         46.35281       24.73190       82.74271
H         46.76691       23.96046       82.28123
H         45.76368       24.32535       83.42662
O         47.32918       25.31663       85.97594
H         47.48409       24.42047       85.58490
H         46.52054       25.20992       86.53713

Ca 1.0



