%chk=holoCaM-CaMKII.loop3.water1.frame455.chk
%nprocshared=20
%mem=10GB
%nosave
#b3lyp/svp scf=(tight,noincore,xqc) Test 
#IOP(5/87=12) Density=Current Pop=(MK,readradii) iop(6/33=2) iop(6/42=6)

holoCaM-CaMKII.loop3.water1.frame455 

   0  1 
C         66.10751       56.64846       33.64255
C         65.66636       57.53690       32.51764
O         66.10773       57.34003       31.39428
H         66.60929       57.24917       34.42795
H         65.21921       56.14333       34.07954
H         66.80816       55.86705       33.27721
N         64.74238       58.51228       32.74605
C         64.15230       59.31005       31.68030
C         63.96825       60.76226       32.14288
O         63.32924       60.98911       33.16083
C         62.83580       58.62493       31.24705
C         62.25339       59.34505       30.07689
O         61.96427       60.51123       30.18439
O         62.17023       58.81661       28.85695
H         64.34515       58.59200       33.69516
H         64.81713       59.29862       30.78558
H         62.10927       58.59812       32.08615
H         63.06772       57.58050       30.94146
N         64.52932       61.79340       31.44217
C         64.52475       63.18712       31.90531
C         63.13886       63.84620       31.90577
O         62.94977       64.78613       32.66492
C         65.52256       64.05531       31.09013
C         66.96719       63.50018       31.15445
C         67.99299       64.32058       30.35531
C         68.30970       65.68494       30.98080
N         69.31878       66.39061       30.18955
H         65.04608       61.55714       30.58321
H         64.89773       63.18912       32.95375
H         65.51179       65.08615       31.50373
H         65.19439       64.10197       30.02762
H         66.98450       62.48283       30.71669
H         67.30417       63.41637       32.21033
H         67.63966       64.45359       29.31117
H         68.94074       63.73786       30.32743
H         68.69877       65.52890       32.01196
H         67.39422       66.30968       31.03876
H         68.94948       66.58382       29.23011
H         69.54746       67.29875       30.65400
H         70.19237       65.81884       30.11971
N         62.16279       63.47896       31.02649
C         60.85064       64.12839       30.91722
C         59.66260       63.16438       31.10339
O         58.53427       63.60648       30.93357
C         60.78561       64.90072       29.57474
C         61.18446       64.09058       28.37520
O         62.14349       64.42383       27.69735
O         60.49538       62.99691       28.04071
H         62.38825       62.75086       30.34328
H         60.71637       64.90132       31.70500
H         61.48824       65.75913       29.64142
H         59.76673       65.31855       29.41979
N         59.81552       61.86880       31.51141
C         58.70805       60.94835       31.77163
C         57.81771       60.59240       30.58357
O         56.82486       59.91483       30.81022
H         60.75213       61.53857       31.75596
H         58.06357       61.40623       32.55242
H         59.11298       59.99835       32.18516
N         58.05938       61.02908       29.31479
C         57.09688       60.86658       28.21948
C         56.84014       59.42574       27.78611
O         55.88152       59.21132       27.05656
C         57.52905       61.70172       26.99762
C         58.71266       61.09230       26.28139
N         58.64648       60.82181       24.96339
O         59.73499       60.82284       26.89119
H         58.90128       61.58735       29.15093
H         56.13889       61.29602       28.59077
H         57.77820       62.73074       27.33586
H         56.67777       61.78721       26.28731
H         57.80293       61.03354       24.41151
H         59.46096       60.40601       24.49938
N         57.66614       58.40225       28.14489
C         57.42621       57.01650       27.77166
C         58.55838       56.40376       26.97403
O         58.64079       55.18296       26.97024
H         58.49679       58.59687       28.72201
H         56.47651       56.86744       27.21302
H         57.33177       56.44599       28.72027
N         59.43006       57.14944       26.22845
C         60.55219       56.54950       25.49899
C         61.84711       57.27456       25.79143
O         61.78880       58.41423       26.22085
C         60.23350       56.44704       23.99060
C         59.95583       57.74885       23.26081
C         60.98824       58.65585       22.95545
C         58.64815       58.03963       22.82801
C         60.71391       59.82366       22.22804
C         58.37509       59.21113       22.11533
C         59.40819       60.10719       21.80992
O         59.15741       61.24110       21.12358
H         59.27965       58.16663       26.15403
H         60.69806       55.50568       25.85309
H         59.32924       55.80359       23.92392
H         61.04535       55.90787       23.45679
H         62.00694       58.45509       23.25920
H         57.83338       57.36062       23.04487
H         61.51487       60.51212       21.98978
H         57.36013       59.42008       21.80027
H         58.26615       61.47802       20.82804
N         63.05916       56.68135       25.57159
C         64.33348       57.36570       25.79884
C         65.08286       57.54615       24.49174
O         64.68170       57.01212       23.46511
C         65.25609       56.62713       26.82685
C         65.59980       55.18218       26.37915
C         64.66612       56.65959       28.24447
C         66.83854       54.62206       27.08484
H         63.07664       55.71778       25.20347
H         64.14936       58.38955       26.18679
H         66.20865       57.19763       26.87812
H         65.85010       55.17078       25.29806
H         64.72497       54.51453       26.53557
H         64.51843       57.71233       28.56328
H         63.69506       56.12426       28.28593
H         65.35957       56.19744       28.97619
H         66.71207       54.57229       28.18354
H         67.04614       53.59783       26.70925
H         67.72089       55.25809       26.84928
N         66.20481       58.31346       24.48191
C         67.06457       58.52619       23.33301
C         68.49586       58.15179       23.69487
O         68.75471       57.76498       24.82806
C         66.96983       60.00289       22.90798
O         67.38975       60.84174       23.94808
H         66.47603       58.78622       25.35185
H         66.73496       57.90139       22.47450
H         65.90983       60.23041       22.65480
H         67.59878       60.17990       22.00903
H         67.31721       61.77018       23.60565
N         69.48932       58.25973       22.77382
C         70.89453       58.00803       23.07794
C         71.40636       58.99065       24.11764
O         72.05417       58.56881       25.06398
C         71.73812       58.12698       21.80788
H         69.23562       58.55171       21.81700
H         71.02101       56.96539       23.44943
H         71.38685       57.38572       21.05834
H         71.66250       59.14558       21.37270
H         72.80263       57.90774       22.03996
N         71.13602       60.32308       24.00183
C         71.57648       61.32862       24.96608
C         71.05788       61.03275       26.36325
O         71.85932       60.93727       27.28264
C         71.10149       62.72102       24.52833
H         70.57740       60.63291       23.19138
H         72.68896       61.34788       24.98722
H         71.51003       62.96188       23.52392
H         69.99217       62.76745       24.47756
H         71.45858       63.49185       25.24450
N         69.72390       60.86794       26.59366
C         69.16471       60.59719       27.92020
C         69.68761       59.28591       28.50285
O         69.55293       59.08354       29.70182
C         67.62734       60.50647       27.84385
C         66.93788       61.80808       27.37515
C         65.51108       61.50915       27.03063
O         65.27034       60.73021       26.12555
O         64.48235       62.00259       27.73501
H         69.09118       60.93654       25.78612
H         69.45918       61.42945       28.59763
H         67.19787       60.22383       28.83216
H         67.40537       59.68050       27.13918
H         67.40690       62.22637       26.46315
H         67.00369       62.56050       28.18285
N         70.26150       58.33442       27.71505
C         70.78892       57.09352       28.23569
H         71.62077       57.30440       28.94027
H         69.98978       56.52224       28.75198
H         71.18460       56.47554       27.39998
H         70.31421       58.47910       26.70312
Ca        62.81567       60.51159       27.53212
O         62.05328       61.69272       24.95790
H         61.49509       62.43152       24.60826
H         62.43813       61.26394       24.15348

Ca 1.0



