%chk=holoCaM-CaMKII.loop3.water3.frame240.chk
%nprocshared=20
%mem=10GB
%nosave
#b3lyp/svp scf=(tight,noincore,xqc) Test 
#IOP(5/87=12) Density=Current Pop=(MK,readradii) iop(6/33=2) iop(6/42=6)

holoCaM-CaMKII.loop3.water3.frame240 

   0  1 
C         82.19502       14.43183       29.42500
C         81.84893       13.31201       28.49190
O         82.57303       12.32691       28.45682
H         83.19442       14.83737       29.16851
H         81.44781       15.25141       29.36855
H         82.20947       14.04452       30.46599
N         80.72560       13.37499       27.72625
C         80.29946       12.26775       26.88652
C         81.27314       12.05052       25.73517
O         81.48775       12.95230       24.93717
C         78.87546       12.51185       26.37963
C         78.23641       11.27876       25.82370
O         78.87015       10.08911       25.77705
O         77.07447       11.34199       25.47292
H         80.12015       14.20763       27.80296
H         80.24537       11.36947       27.54427
H         78.85496       13.33676       25.63443
H         78.24258       12.80604       27.24610
N         81.91260       10.85817       25.62081
C         82.93575       10.54493       24.62745
C         82.40972       10.63234       23.20308
O         83.00582       11.34493       22.40771
C         83.49658        9.13755       24.92574
C         84.75897        8.76869       24.13886
C         85.28772        7.41013       24.63697
C         86.62804        6.99860       24.01123
N         86.52453        6.76255       22.57193
H         81.68822       10.14634       26.32738
H         83.77437       11.26578       24.75836
H         82.71570        8.37211       24.73804
H         83.77054        9.11589       26.00489
H         85.53521        9.54379       24.31993
H         84.52757        8.73105       23.05374
H         84.52951        6.61653       24.45647
H         85.45487        7.48043       25.73513
H         86.96060        6.05743       24.50388
H         87.39510        7.77844       24.21479
H         87.44930        6.42435       22.22020
H         85.80297        6.03023       22.37983
H         86.28412        7.64551       22.06901
N         81.30210        9.93470       22.81129
C         80.80797        9.92150       21.43154
C         79.48642       10.65403       21.26031
O         78.99531       10.70596       20.13988
C         80.70922        8.46702       20.91803
C         79.67325        7.60670       21.60370
O         79.53671        6.44673       21.25134
O         78.87946        8.09316       22.57723
H         80.79367        9.39088       23.52374
H         81.52848       10.44729       20.76755
H         81.70458        7.98605       21.02931
H         80.46024        8.48711       19.83415
N         78.86354       11.27366       22.30010
C         77.62773       12.01240       22.14001
C         76.47566       11.12154       21.74374
O         75.86464       11.37771       20.71628
H         79.28975       11.26473       23.23623
H         77.77404       12.82124       21.38947
H         77.36395       12.49885       23.10280
N         76.08250       10.09543       22.55409
C         74.86286        9.32565       22.32698
C         73.80411        9.63728       23.38817
O         72.71628        9.08337       23.29331
C         75.12973        7.80050       22.20216
C         75.65209        7.03376       23.43978
N         75.07305        5.69289       23.49771
O         75.41132        7.68022       24.64278
H         76.62492        9.91293       23.40590
H         74.40915        9.62657       21.35836
H         75.83605        7.60115       21.36676
H         74.15988        7.35092       21.89906
H         74.03921        5.78985       23.64657
H         75.44185        5.20598       24.34629
N         74.03549       10.51531       24.41352
C         73.05503       10.87013       25.42723
C         73.44934       10.42741       26.82792
O         72.67287       10.67402       27.73698
H         74.94208       10.98603       24.48742
H         72.07232       10.39865       25.20800
H         72.91047       11.97107       25.40882
N         74.57833        9.69274       27.06874
C         74.82286        9.00187       28.33252
C         76.26438        9.09565       28.79776
O         77.17180        8.81429       28.03285
C         74.47053        7.51401       28.12323
C         72.97585        7.35555       27.99520
C         72.16569        7.57298       29.12346
C         72.37554        7.01083       26.77419
C         70.77950        7.45072       29.03510
C         70.98261        6.89950       26.68508
C         70.18110        7.11859       27.81731
O         68.83886        7.01530       27.74858
H         75.19636        9.45771       26.28593
H         74.17270        9.38950       29.14499
H         74.79964        6.89268       28.98537
H         75.00473        7.13933       27.22228
H         72.61136        7.83366       30.07603
H         72.97934        6.84737       25.89085
H         70.17150        7.61857       29.91537
H         70.52683        6.64636       25.73660
H         68.38028        6.79434       26.92606
N         76.51363        9.31594       30.12259
C         77.82197        9.14178       30.74280
C         77.78350        7.80939       31.47681
O         76.89208        7.59728       32.28473
C         78.14091       10.29698       31.73400
C         78.12892       11.66846       31.01549
C         79.50742       10.04537       32.41663
C         78.24815       12.84847       31.98538
H         75.71240        9.45758       30.75497
H         78.62601        9.11929       29.97730
H         77.34914       10.30408       32.51597
H         77.16269       11.79354       30.48244
H         78.94755       11.71669       30.26351
H         80.32544       10.03691       31.66392
H         79.73172       10.81098       33.18355
H         79.51556        9.07320       32.95098
H         77.41851       12.81744       32.72448
H         79.21584       12.84663       32.52502
H         78.18249       13.80177       31.42156
N         78.75023        6.87670       31.25347
C         78.79283        5.57526       31.90832
C         79.98400        5.51888       32.84547
O         80.68841        6.50346       32.97861
C         78.87282        4.47138       30.83545
O         80.07931        4.54405       30.11968
H         79.52375        7.11067       30.62266
H         77.87648        5.40363       32.51188
H         77.99535        4.53504       30.15057
H         78.81581        3.46730       31.30372
H         79.90150        5.06407       29.29502
N         80.26699        4.38080       33.53773
C         81.44261        4.25092       34.39234
C         82.71723        4.41187       33.58000
O         83.56340        5.21355       33.95475
C         81.44061        2.88397       35.08303
H         79.63394        3.57462       33.43864
H         81.40681        5.02047       35.19622
H         82.32165        2.79800       35.75455
H         80.52197        2.77798       35.69907
H         81.46952        2.05983       34.33951
N         82.90893        3.68630       32.43879
C         84.12081        3.74580       31.61805
C         84.41007        5.11199       30.99083
O         85.44076        5.23344       30.34347
C         84.03198        2.70041       30.49787
H         82.16151        3.03013       32.16072
H         84.98391        3.47747       32.26659
H         84.97157        2.67738       29.90546
H         83.87560        1.69027       30.93248
H         83.18384        2.93473       29.81815
N         83.58480        6.18451       31.15219
C         83.86011        7.51173       30.61736
C         84.24395        8.41889       31.77144
O         85.33205        8.97733       31.73722
C         82.64111        8.02666       29.82026
C         82.34744        7.10273       28.62382
C         81.17020        7.56166       27.81131
O         81.29961        7.78666       26.62401
O         79.95379        7.67889       28.36307
H         82.72813        6.08264       31.70097
H         84.72756        7.49299       29.91932
H         82.85396        9.05204       29.44473
H         81.75128        8.07648       30.48482
H         82.13177        6.07754       28.98749
H         83.24692        7.05829       27.96980
N         83.43644        8.55578       32.86068
C         83.80378        9.31094       34.04198
H         84.79542        9.80040       33.94398
H         83.03857       10.08834       34.24030
H         83.84767        8.62089       34.91262
H         82.53358        8.06887       32.88377
Ca        77.47869        8.41767       25.22733
O         78.12746        4.95270       24.22934
H         78.19602        5.38565       23.34270
H         77.94784        4.00036       24.02837
O         77.68257        5.04212       27.17287
H         78.13294        5.70966       27.74789
H         78.37776        4.36012       26.99238
O         80.83990        5.57298       24.96285
H         81.17261        4.66254       25.16269
H         81.55587        5.98989       24.42086

Ca 1.0



