%chk=holoCaM.loop4.water3.frame302.chk
%nprocshared=20
%mem=10GB
%nosave
#b3lyp/svp scf=(tight,noincore,xqc) Test 
#IOP(5/87=12) Density=Current Pop=(MK,readradii) iop(6/33=2) iop(6/42=6)

holoCaM.loop4.water3.frame302 

   -3  1 
C         33.30361       39.68218       89.38112
C         32.96106       40.50308       90.58948
O         31.86895       41.04789       90.61961
H         34.30601       39.21620       89.47072
H         32.55053       38.87040       89.27283
H         33.27435       40.31781       88.47211
N         33.83388       40.62756       91.63468
C         33.49061       41.31580       92.88071
C         34.69208       41.37585       93.82321
O         35.21737       40.33377       94.19091
C         32.32533       40.56278       93.55928
C         31.97308       41.04670       94.93156
O         32.06091       40.27296       95.86998
O         31.54183       42.28780       95.18911
H         34.76186       40.18400       91.55073
H         33.16885       42.35262       92.65126
H         32.61336       39.49185       93.64837
H         31.40788       40.61477       92.94228
N         35.14758       42.58315       94.27731
C         36.25275       42.74783       95.22542
C         35.82315       43.43713       96.52864
O         36.65258       43.51442       97.42519
C         37.41328       43.57807       94.58350
C         36.96271       45.03103       94.24692
C         37.97385       42.85879       93.34586
C         38.09455       45.95727       93.80807
H         34.67854       43.42729       93.93333
H         36.64930       41.74774       95.50993
H         38.23371       43.63790       95.33405
H         36.51919       45.50063       95.15016
H         36.19659       45.02033       93.44864
H         38.85966       43.39108       92.94394
H         38.30282       41.83382       93.61748
H         37.20605       42.79125       92.54608
H         38.55160       45.61944       92.85759
H         37.68223       46.97618       93.64221
H         38.87043       46.01732       94.60012
N         34.60130       44.03729       96.67746
C         34.23873       44.85554       97.84136
C         32.95219       44.41615       98.53895
O         32.63601       44.99513       99.56983
C         34.16003       46.35714       97.44351
C         33.17689       46.73145       96.35502
O         32.48908       45.80226       95.67770
O         33.05191       47.90142       96.03621
H         33.93442       43.98166       95.90292
H         35.03796       44.78376       98.61199
H         35.16520       46.68203       97.09748
H         33.91336       46.94846       98.35197
N         32.16092       43.41394       98.06244
C         30.94889       42.95276       98.72972
C         29.82582       43.97786       98.86065
O         28.84207       43.64500       99.50637
H         32.45424       42.90968       97.22351
H         31.23076       42.61695       99.75147
H         30.54564       42.07110       98.18643
N         29.89267       45.23746       98.33528
C         28.89549       46.26999       98.63839
C         27.47517       46.00066       98.12740
O         26.57228       46.68824       98.58411
C         29.38516       47.66562       98.17788
C         29.65795       47.80212       96.70158
O         29.55095       46.85297       95.94397
O         30.06077       48.99066       96.21508
H         30.72320       45.50423       97.79154
H         28.82300       46.31678       99.74819
H         30.33250       47.90305       98.70796
H         28.63091       48.42729       98.47014
N         27.19494       45.06822       97.17419
C         25.84674       44.78613       96.68023
C         25.63548       45.23201       95.24058
O         24.58181       44.95106       94.68823
H         27.97266       44.55392       96.75103
H         25.06976       45.29302       97.29299
H         25.67402       43.69233       96.76309
N         26.56445       45.99237       94.60042
C         26.43945       46.54015       93.25177
C         27.68757       46.19682       92.44407
O         28.58352       45.57025       92.99314
C         26.18320       48.06662       93.35184
C         27.18485       48.81220       94.25636
C         26.83920       50.26861       94.41222
N         27.74748       51.22944       94.12848
O         25.73785       50.58517       94.83830
H         27.40828       46.25027       95.11636
H         25.56615       46.09614       92.72391
H         25.17203       48.19854       93.79757
H         26.16166       48.52036       92.33775
H         28.21335       48.68925       93.85862
H         27.14430       48.39268       95.28137
H         28.69117       50.98394       93.79633
H         27.51291       52.22377       94.26522
N         27.80960       46.54887       91.12594
C         28.97471       46.18154       90.31627
C         29.71459       47.43470       89.82904
O         29.15967       48.22919       89.08433
C         28.56937       45.17107       89.20005
C         27.55389       45.71173       88.18244
C         29.80559       44.62963       88.47019
H         27.04301       47.07287       90.67906
H         29.68548       45.61339       90.95074
H         28.08986       44.30241       89.70644
H         27.28222       44.90606       87.46550
H         26.61816       46.02886       88.68522
H         27.97018       46.55968       87.60317
H         29.51336       43.85224       87.73233
H         30.33978       45.44389       87.93753
H         30.49167       44.15283       89.20014
N         30.98425       47.67592       90.27574
C         31.79979       48.85798       89.96570
C         32.24262       48.88042       88.50263
O         31.97333       47.93163       87.78363
C         33.03551       48.82406       90.91094
C         33.98490       49.99160       90.85321
N         33.56824       51.24153       91.15322
O         35.15753       49.80002       90.56749
H         31.37906       46.99151       90.93265
H         31.19804       49.76520       90.19085
H         33.60217       47.89484       90.70111
H         32.67258       48.77248       91.95694
H         32.58873       51.42336       91.41233
H         34.23369       52.02839       91.13194
N         32.91689       49.95612       87.98967
C         33.40963       50.01559       86.61191
C         34.63293       49.12456       86.35879
O         34.98943       48.95986       85.20029
C         33.72927       51.46107       86.14271
C         34.96986       52.08893       86.75577
C         36.13917       52.20820       85.98050
C         34.98287       52.58162       88.07324
C         37.29470       52.78378       86.51648
C         36.13868       53.15705       88.60688
C         37.30033       53.25686       87.83109
O         38.42180       53.80965       88.33492
H         33.00736       50.77771       88.58820
H         32.57321       49.66669       85.96471
H         32.85373       52.13191       86.27620
H         33.88921       51.38720       85.04355
H         36.16307       51.84607       84.96021
H         34.10544       52.55119       88.69463
H         38.18725       52.85956       85.90858
H         36.12650       53.53075       89.62309
H         38.46409       54.15244       89.23910
N         35.32605       48.52706       87.37361
C         36.44570       47.60560       87.16732
C         36.03522       46.18335       87.52824
O         36.86155       45.28669       87.43152
C         37.68410       48.04606       87.97737
C         38.27084       49.36631       87.46337
C         39.53304       49.71476       88.20154
O         40.59165       49.80564       87.59942
O         39.50435       49.92906       89.53061
H         35.01871       48.67482       88.34311
H         36.73989       47.56180       86.09554
H         38.47530       47.27133       87.86396
H         37.42739       48.12584       89.05714
H         37.53625       50.18564       87.59086
H         38.50440       49.26047       86.37998
N         34.74628       45.89246       87.85821
C         34.22860       44.55348       88.07667
C         33.36165       44.13985       86.89358
O         33.33207       42.95719       86.58513
C         33.38257       44.53492       89.35741
C         34.17267       44.92326       90.61552
C         33.27648       45.02903       91.82002
O         33.77609       45.48553       92.98080
O         32.09351       44.73380       91.75483
H         34.05925       46.64927       87.90215
H         35.05362       43.81306       88.17342
H         32.94296       43.52366       89.50165
H         32.55800       45.27069       89.22731
H         34.64455       45.91324       90.45924
H         34.97687       44.18288       90.81476
N         32.64174       45.05459       86.17493
C         31.81244       44.72346       85.03707
H         30.77048       45.04931       85.24053
H         32.18573       45.27043       84.14494
H         31.81096       43.63774       84.81465
H         32.67133       46.04916       86.41825
Ca        31.28412       44.37130       94.45579
O         29.62474       42.91980       92.38777
H         28.68228       43.04169       92.11252
H         30.03730       42.43514       91.63251
O         30.93146       47.31309       93.43507
H         30.62673       48.22408       93.66915
H         31.90375       47.32617       93.61385
O         29.00658       42.75956       95.62700
H         29.12167       41.86034       96.02287
H         28.30859       42.65204       94.93559

Ca 1.0



