%chk=holoCaM.loop3.water2.frame282.chk
%nprocshared=20
%mem=10GB
%nosave
#b3lyp/svp scf=(tight,noincore,xqc) Test 
#IOP(5/87=12) Density=Current Pop=(MK,readradii) iop(6/33=2) iop(6/42=6)

holoCaM.loop3.water2.frame282 

   0  1 
C         55.01057       82.33876       70.86350
C         56.40218       81.96290       71.22543
O         56.77304       81.99640       72.38932
H         54.36267       82.40445       71.75799
H         55.06701       83.33055       70.36389
H         54.60541       81.60237       70.13835
N         57.24242       81.60415       70.22929
C         58.65872       81.40065       70.41112
C         59.28784       82.76593       70.63378
O         59.05278       83.65809       69.82952
C         59.20234       80.70404       69.14920
C         60.61427       80.28876       69.27583
O         61.13281       79.62090       68.40762
O         61.31161       80.61645       70.35595
H         56.85341       81.50915       69.27846
H         58.83853       80.70932       71.27049
H         59.09036       81.35080       68.25376
H         58.62763       79.76594       69.00524
N         60.09251       83.00090       71.70465
C         60.66273       84.30977       72.01147
C         62.15124       84.39588       71.66867
O         62.70361       85.48173       71.77156
C         60.41976       84.63493       73.50018
C         58.92329       84.57465       73.88019
C         58.71725       84.94265       75.36155
C         58.79497       86.47249       75.58232
N         59.50847       86.83137       76.81271
H         60.30933       82.21564       72.32692
H         60.16800       85.08961       71.39327
H         60.83959       85.63517       73.72937
H         60.96655       83.89085       74.12859
H         58.58366       83.53710       73.71820
H         58.30766       85.22808       73.22590
H         59.47822       84.39091       75.95590
H         57.71989       84.59138       75.71006
H         57.75912       86.88338       75.59515
H         59.30248       86.96649       74.72916
H         58.99031       86.49947       77.65563
H         60.47245       86.42291       76.80456
H         59.61140       87.87222       76.86305
N         62.86333       83.30695       71.25752
C         64.27829       83.32879       70.87261
C         64.55011       82.71780       69.49057
O         65.66847       82.85412       69.01088
C         65.14519       82.67268       71.95373
C         64.64839       81.39384       72.50181
O         64.99789       81.09872       73.76327
O         64.19495       80.53485       71.77146
H         62.38740       82.40736       71.25524
H         64.63232       84.37832       70.80713
H         65.19038       83.35928       72.82255
H         66.17939       82.50458       71.59600
N         63.57156       82.09519       68.77239
C         63.66513       81.73412       67.36773
C         64.17729       80.33802       67.08629
O         64.42157       80.03296       65.92644
H         62.64606       82.02975       69.17530
H         64.24301       82.51031       66.82690
H         62.63360       81.75994       66.95625
N         64.33016       79.42591       68.08513
C         64.87193       78.08281       67.90099
C         63.91803       77.10232       67.18172
O         64.28106       75.95051       66.97540
C         65.30310       77.56326       69.29169
C         64.17915       76.85127       70.08759
N         64.65426       75.80282       70.98605
O         62.97763       77.51501       70.48272
H         64.10445       79.72298       69.04220
H         65.80445       78.18198       67.29555
H         65.80023       78.37290       69.87755
H         66.09756       76.80728       69.10565
H         65.33140       75.17704       70.46755
H         63.85205       75.24130       71.35301
N         62.68179       77.51209       66.77684
C         61.67592       76.69726       66.11788
C         60.81147       75.90100       67.07805
O         60.12733       74.99283       66.62549
H         62.43057       78.48731       66.90946
H         62.10065       76.10252       65.28220
H         60.96248       77.39846       65.63034
N         60.74256       76.22437       68.40501
C         59.88151       75.54254       69.36660
C         59.32171       76.48000       70.43016
O         59.95147       77.46705       70.78488
C         60.69026       74.47296       70.08929
C         61.10759       73.35141       69.18795
C         62.37942       73.32270       68.58970
C         60.22348       72.28257       68.99401
C         62.77295       72.20692       67.84287
C         60.62312       71.16855       68.26492
C         61.90787       71.11357       67.71382
O         62.32557       69.99630       67.09288
H         61.35732       76.96281       68.75861
H         59.00836       75.08258       68.85033
H         60.08206       74.02833       70.90813
H         61.57781       74.93585       70.56806
H         63.06891       74.14839       68.71842
H         59.23744       72.29675       69.44208
H         63.76070       72.17360       67.39914
H         59.94322       70.33526       68.14888
H         61.80911       69.17910       67.15552
N         58.18170       76.11095       71.08421
C         57.55745       76.85318       72.16950
C         57.75916       76.06831       73.46146
O         57.36115       74.91694       73.55199
C         56.03414       77.03482       71.90712
C         55.75391       77.76512       70.56534
C         55.38054       77.77106       73.10502
C         54.27616       77.66678       70.17043
H         57.73835       75.22080       70.81618
H         58.01249       77.86870       72.26207
H         55.59101       76.01698       71.83210
H         56.32961       77.28427       69.74438
H         56.06696       78.83078       70.61674
H         55.85768       78.76456       73.24592
H         54.28677       77.90309       72.99592
H         55.50788       77.18947       74.04206
H         54.09576       78.14736       69.18600
H         53.97872       76.59673       70.09671
H         53.63096       78.17235       70.91227
N         58.31900       76.68756       74.52606
C         58.50674       76.14583       75.85387
C         57.61871       76.91397       76.80655
O         56.97120       77.85135       76.38495
C         59.98725       76.22190       76.24555
O         60.70092       75.32928       75.43406
H         58.53484       77.65877       74.42561
H         58.18141       75.08923       75.88504
H         60.10688       75.92339       77.30932
H         60.36997       77.26418       76.11687
H         61.50750       75.04203       75.93311
N         57.44695       76.48050       78.08047
C         56.41470       76.98682       78.98207
C         56.68531       78.36810       79.51139
O         55.73579       79.13255       79.63741
C         56.21969       76.00706       80.14291
H         57.98423       75.65204       78.36866
H         55.44381       77.02905       78.43632
H         55.41675       76.35492       80.82767
H         55.92268       75.01582       79.73522
H         57.15679       75.87877       80.72114
N         57.93515       78.77015       79.87300
C         58.16063       80.12957       80.33864
C         57.85334       81.12335       79.20659
O         57.60931       82.28962       79.48293
C         59.57253       80.26257       80.93471
H         58.73070       78.12055       79.77347
H         57.45001       80.31569       81.17458
H         59.72980       81.27177       81.36789
H         59.69253       79.52753       81.76455
H         60.36015       80.03405       80.18598
N         57.81288       80.69676       77.90402
C         57.45118       81.51876       76.75437
C         55.92639       81.61082       76.66617
O         55.38499       82.70535       76.60840
C         58.09446       80.95601       75.43865
C         59.63043       80.72542       75.56955
C         60.30067       80.14882       74.31975
O         59.89094       79.12664       73.84484
O         61.40360       80.62680       73.73002
H         58.07510       79.72567       77.70470
H         57.88019       82.53174       76.88423
H         57.91104       81.69215       74.64071
H         57.61253       80.00608       75.12082
H         59.78806       79.96725       76.36648
H         60.11270       81.66819       75.89603
N         55.17399       80.47481       76.68155
C         53.72940       80.43297       76.71679
H         53.28744       81.06964       75.92547
H         53.39251       79.38255       76.55579
H         53.37266       80.74518       77.72097
H         55.64548       79.57777       76.72793
Ca        62.15269       79.07882       72.09898
O         63.75180       78.29495       74.06820
H         64.55513       77.74318       73.91862
H         64.11055       79.15156       74.38592
O         61.83421       76.34236       72.83140
H         62.19822       75.44595       73.03570
H         61.30961       76.60234       73.62475

Ca 1.0



