%chk=holoCaM.loop2.water1.frame484.chk
%nprocshared=20
%mem=10GB
%nosave
#b3lyp/svp scf=(tight,noincore,xqc) Test 
#IOP(5/87=12) Density=Current Pop=(MK,readradii) iop(6/33=2) iop(6/42=6)

holoCaM.loop2.water1.frame484 

   -2  1 
C         63.05220       74.57812       54.05761
C         62.39013       74.87419       55.36685
O         63.02675       74.71282       56.39926
H         64.09393       74.22474       54.22052
H         62.48523       73.79220       53.51920
H         63.08580       75.50222       53.44329
N         61.10826       75.34231       55.40440
C         60.46806       75.70842       56.66019
C         60.30500       74.47461       57.53039
O         59.56808       73.57163       57.15918
C         59.12840       76.44260       56.41479
C         58.60231       77.17581       57.62860
O         57.67476       77.95423       57.49388
O         59.22726       77.08916       58.82052
H         60.60923       75.49325       54.51385
H         61.14606       76.44158       57.13573
H         58.36114       75.75845       55.99242
H         59.33101       77.23529       55.66031
N         61.03062       74.34881       58.67629
C         61.02457       73.15947       59.51206
C         59.65481       72.90989       60.10254
O         59.05282       71.90265       59.75523
C         62.08537       73.27221       60.61771
H         61.67274       75.10458       58.91980
H         61.30971       72.29462       58.87158
H         62.10482       72.34796       61.23200
H         63.08908       73.41183       60.16165
H         61.88979       74.14114       61.28084
N         59.09462       73.76396       61.01214
C         57.76873       73.51135       61.57042
C         56.66838       73.66965       60.53118
O         55.53933       73.29682       60.81881
C         57.47636       74.39690       62.80413
C         57.41744       75.88300       62.55061
O         57.13200       76.70795       63.57538
O         57.61534       76.35298       61.44162
H         59.63447       74.58012       61.33603
H         57.76056       72.45900       61.93422
H         58.25563       74.20449       63.57247
H         56.49741       74.08790       63.23175
N         56.91042       74.23565       59.31354
C         55.88872       74.39904       58.30253
C         54.77554       75.29489       58.78125
O         53.62960       74.86926       58.78121
H         57.85119       74.57893       59.07819
H         55.49683       73.40237       58.00593
H         56.34275       74.86793       57.40117
N         55.04591       76.57701       59.15293
C         54.01558       77.55737       59.47745
C         53.91041       78.60688       58.37078
O         53.16985       79.56640       58.53584
C         54.24380       78.18352       60.87721
C         55.47977       79.03717       61.05157
N         55.66969       79.70782       62.21152
O         56.30246       79.14472       60.15780
H         56.02513       76.89259       59.12138
H         53.01784       77.06859       59.53067
H         54.26025       77.37635       61.64211
H         53.36663       78.83155       61.09462
H         54.98050       79.64350       62.97539
H         56.49739       80.30879       62.34058
N         54.56535       78.44766       57.18001
C         54.42217       79.34757       56.04979
C         55.39175       80.51160       56.06351
O         55.39480       81.25048       55.08961
H         55.10187       77.58781       57.00219
H         53.36837       79.68935       55.95267
H         54.65363       78.76689       55.13028
N         56.24303       80.74734       57.10473
C         57.21163       81.84117       57.12270
C         58.59929       81.30631       57.41919
O         58.79787       80.74769       58.48235
C         56.82204       82.90205       58.17852
C         55.51376       83.61378       57.81173
O         56.75137       82.35267       59.47354
H         56.19898       80.14024       57.93051
H         57.23703       82.35706       56.13803
H         57.61374       83.68336       58.18657
H         55.91173       81.82758       59.54237
H         54.66617       82.89701       57.77982
H         55.29313       84.39909       58.56423
H         55.61250       84.09621       56.81570
N         59.61855       81.45685       56.52997
C         60.98136       80.99083       56.79242
C         61.57674       81.78511       57.96075
O         61.60738       83.00602       57.89760
C         61.86380       81.10857       55.50245
C         61.27094       80.23072       54.35924
C         63.31862       80.68176       55.79164
C         62.00567       80.36596       53.02224
H         59.41264       81.92643       55.63630
H         60.95490       79.90706       57.04945
H         61.87354       82.17221       55.17610
H         60.22092       80.52354       54.16058
H         61.26885       79.16047       54.66328
H         63.76342       81.32495       56.57165
H         63.36119       79.62123       56.12096
H         63.96743       80.80796       54.90303
H         63.04658       79.99110       53.08260
H         61.48298       79.75867       52.25313
H         62.01052       81.42626       52.69179
N         62.12893       81.13476       59.02817
C         62.84842       81.78482       60.12036
C         64.35325       81.72916       59.83140
O         64.72574       81.14428       58.83241
C         62.51852       81.09903       61.47253
C         61.10855       81.33174       61.98748
O         60.00278       80.66895       61.55787
O         60.96757       82.11319       62.91501
H         62.17989       80.11706       58.98881
H         62.58578       82.86425       60.17099
H         63.19848       81.56139       62.22129
H         62.75803       80.01313       61.46171
N         65.27984       82.36835       60.61124
C         66.70824       82.40439       60.26654
C         67.36327       81.02262       60.27657
O         67.96211       80.69331       59.26284
C         67.50491       83.40583       61.14010
C         68.97408       83.44999       60.75356
C         69.37054       83.84659       59.46152
C         69.96389       83.08330       61.68470
C         70.72519       83.87117       59.11158
C         71.31712       83.11044       61.32957
C         71.69734       83.50342       60.04442
H         64.95399       82.90148       61.43147
H         66.78777       82.80685       59.23118
H         67.41395       83.15392       62.20892
H         67.07268       84.42193       61.01858
H         68.63519       84.13571       58.72244
H         69.69086       82.77042       62.68450
H         71.02233       84.17487       58.11574
H         72.07238       82.82477       62.05070
H         72.74512       83.52275       59.77138
N         67.32665       80.15711       61.34309
C         67.93151       78.82335       61.32957
C         67.58594       78.04433       60.07558
O         68.44492       77.42784       59.46243
C         67.28834       78.13563       62.54774
C         67.12426       79.28943       63.50320
C         66.59985       80.38142       62.57874
H         69.03222       78.91221       61.46148
H         66.25379       77.79689       62.30523
H         67.85349       77.26263       62.93771
H         66.48482       79.09257       64.39000
H         68.14203       79.58079       63.85028
H         65.51194       80.26822       62.37461
H         66.79921       81.34770       63.06700
N         66.30399       78.07518       59.64393
C         65.77127       77.37264       58.48782
C         66.42152       77.86252       57.20399
O         66.88918       77.04506       56.42446
C         64.24813       77.58394       58.46446
C         63.60584       77.01974       59.76079
C         62.15754       77.32762       59.85790
O         61.60038       77.92215       58.95730
O         61.45770       76.92865       60.93742
H         65.66136       78.66880       60.18792
H         65.94089       76.27792       58.59184
H         63.79936       77.07980       57.58074
H         64.03603       78.67171       58.38327
H         64.04391       77.45666       60.67649
H         63.75733       75.92169       59.80374
N         66.51439       79.19244       56.93548
C         67.13568       79.72168       55.74280
H         68.18536       79.36745       55.66941
H         66.56336       79.40814       54.84573
H         67.14424       80.83335       55.78796
H         66.16114       79.86248       57.61906
Ca        59.44798       78.89724       60.21707
O         59.88060       78.20510       63.39770
H         59.00289       78.60294       63.16999
H         59.96253       78.33128       64.37607

Ca 1.0



