%chk=holoCaM-CaMKII.loop4.water1.frame466.chk
%nprocshared=20
%mem=10GB
%nosave
#b3lyp/svp scf=(tight,noincore,xqc) Test 
#IOP(5/87=12) Density=Current Pop=(MK,readradii) iop(6/33=2) iop(6/42=6)

holoCaM-CaMKII.loop4.water1.frame466 

   -3  1 
C         84.95684       68.27367       58.47290
C         85.48417       66.87597       58.59508
O         85.48821       66.34156       59.69403
H         83.90082       68.29444       58.81835
H         85.56187       68.95912       59.09944
H         84.98371       68.62678       57.42036
N         85.90479       66.19856       57.49272
C         86.30061       64.80099       57.54195
C         87.59932       64.56819       58.29578
O         88.57324       65.25770       58.02839
C         86.40053       64.21148       56.12881
C         86.52093       62.72975       56.26044
O         87.40277       62.10792       55.69453
O         85.63209       62.10099       57.05115
H         85.84973       66.66616       56.57407
H         85.47104       64.26157       58.04553
H         87.23315       64.65103       55.53570
H         85.44427       64.41142       55.59741
N         87.69133       63.54968       59.20639
C         88.88941       63.26606       59.99378
C         89.49687       61.89321       59.63930
O         90.54647       61.58207       60.18095
C         88.53365       63.39166       61.52046
C         87.78754       64.73041       61.79158
C         89.78514       63.28923       62.42285
C         87.33975       64.92783       63.24216
H         86.86651       62.95423       59.36747
H         89.66869       64.02533       59.76318
H         87.83902       62.56360       61.78746
H         86.85763       64.74723       61.18789
H         88.41999       65.59234       61.48720
H         90.29274       62.31363       62.33831
H         90.50469       64.10118       62.18326
H         89.51623       63.34984       63.49429
H         88.20561       65.04207       63.92429
H         86.74193       65.86039       63.31696
H         86.71033       64.07460       63.57306
N         88.95235       61.03657       58.71674
C         89.54408       59.72574       58.41586
C         90.15489       59.66224       57.02560
O         90.67720       58.60939       56.68099
C         88.48797       58.60397       58.52112
C         87.82589       58.52609       59.86303
O         88.55834       58.30680       60.97039
O         86.61278       58.61655       59.95061
H         88.10522       61.30807       58.20028
H         90.36533       59.49275       59.12855
H         88.97418       57.62165       58.33204
H         87.72211       58.75076       57.73257
N         90.14043       60.71690       56.16061
C         90.68678       60.60715       54.81680
C         89.90665       59.65412       53.91753
O         90.36118       59.42049       52.80739
H         89.75714       61.62589       56.45415
H         91.74380       60.27280       54.89325
H         90.68044       61.60670       54.32973
N         88.70495       59.11744       54.29025
C         87.87614       58.29350       53.40288
C         86.88638       59.15110       52.60925
O         86.13369       58.59665       51.82122
C         87.19752       57.13336       54.19261
C         86.25129       57.59289       55.26150
O         85.75303       56.80331       56.04735
O         86.02646       58.89901       55.39064
H         88.30307       59.41772       55.18610
H         88.52470       57.80284       52.64602
H         88.00083       56.54573       54.68679
H         86.64536       56.46373       53.50057
N         86.88105       60.51476       52.71066
C         86.06423       61.38714       51.88559
C         84.59067       61.26179       52.16715
O         83.83469       61.01195       51.24003
H         87.53509       60.98631       53.34851
H         86.28149       61.19478       50.81196
H         86.34526       62.44208       52.09922
N         84.11101       61.49419       53.42158
C         82.68225       61.52703       53.76114
C         82.44989       62.02397       55.18107
O         83.39720       62.18163       55.92823
C         81.97902       60.16965       53.46657
C         82.65171       58.89647       54.02330
C         82.44460       58.64592       55.49717
N         81.82455       57.51661       55.91738
O         82.85677       59.44213       56.32205
H         84.81231       61.71137       54.14510
H         82.20899       62.30150       53.11773
H         81.98683       60.04578       52.36631
H         80.90512       60.19987       53.74999
H         83.73542       58.90387       53.78267
H         82.20980       58.03780       53.47252
H         81.48035       56.81574       55.24429
H         81.69660       57.33214       56.92322
N         81.20375       62.36269       55.60803
C         80.94322       62.90911       56.93739
C         79.97330       61.99877       57.65983
O         78.88971       61.74408       57.15205
C         80.42755       64.37099       56.83557
C         80.09821       64.95156       58.22480
C         81.48952       65.26857       56.17179
H         80.41029       62.26592       54.95585
H         81.87647       62.96321       57.53724
H         79.50322       64.39401       56.21819
H         79.29683       64.36566       58.71992
H         80.99721       64.94978       58.87936
H         79.73449       65.99708       58.12822
H         81.11711       66.31186       56.08754
H         82.42651       65.27951       56.77288
H         81.73150       64.91119       55.14966
N         80.29996       61.50826       58.88731
C         79.43498       60.65388       59.69235
C         78.87626       61.48970       60.83633
O         79.27186       62.63512       60.96713
C         80.29330       59.43388       60.12160
C         79.61350       58.34401       60.91562
N         79.47292       57.10156       60.39653
O         79.23537       58.55994       62.05539
H         81.19578       61.79876       59.30876
H         78.56764       60.30832       59.08859
H         81.17229       59.78459       60.70704
H         80.68182       58.98379       59.18179
H         79.80631       56.88046       59.44701
H         79.03123       56.35229       60.94971
N         77.90691       61.02262       61.66952
C         77.34482       61.82303       62.75664
C         78.42560       62.26511       63.73200
O         78.51580       63.45305       64.00830
C         76.25964       61.02303       63.50513
C         75.62528       61.83899       64.60931
C         74.89123       63.00121       64.31135
C         75.77045       61.44621       65.94984
C         74.31532       63.75590       65.33802
C         75.19664       62.20397       66.97446
C         74.46626       63.36200       66.67154
O         73.90730       64.10145       67.65061
H         77.52986       60.07877       61.50749
H         76.86402       62.72708       62.31945
H         76.72419       60.10239       63.92171
H         75.46454       60.70686       62.79544
H         74.76232       63.32363       63.28576
H         76.33479       60.55781       66.20399
H         73.75180       64.64867       65.09656
H         75.32203       61.89034       68.00295
H         73.98903       63.86328       68.58521
N         79.29005       61.36068       64.27491
C         80.34543       61.71709       65.22241
C         81.19440       62.87195       64.71672
O         81.40909       63.81829       65.46148
C         81.21117       60.48506       65.59890
C         82.00139       59.84860       64.43938
C         82.79202       58.66396       64.91801
O         82.16318       57.60144       65.45610
O         84.00851       58.65426       64.81308
H         79.19781       60.37626       63.98648
H         79.86518       62.05291       66.16877
H         80.53898       59.71601       66.03919
H         81.93480       60.79412       66.38572
H         82.70924       60.58841       64.01622
H         81.31465       59.50871       63.63724
N         81.66275       62.88427       63.44083
C         82.46342       63.97324       62.88967
C         81.69366       65.28346       62.94296
O         82.18895       66.23241       63.53421
C         82.89951       63.63279       61.45135
C         83.83623       62.40601       61.45098
C         84.28892       62.00038       60.08611
O         85.15516       60.98052       59.96382
O         83.88186       62.57000       59.08867
H         81.41416       62.08984       62.83236
H         83.39268       64.09107       63.49206
H         83.45708       64.49376       61.02033
H         82.00490       63.44360       60.81990
H         83.33821       61.52096       61.89410
H         84.73580       62.64483       62.05824
N         80.45831       65.39143       62.38253
C         79.63959       66.58440       62.44172
H         78.70134       66.35368       62.99090
H         80.14935       67.42402       62.95743
H         79.37812       66.90298       61.41131
H         80.05513       64.57809       61.91391
Ca        85.49560       59.92074       57.24513
O         83.43202       58.60939       59.38413
H         83.51940       57.69622       59.01246
H         83.75732       58.53194       60.31617

Ca 1.0



