%chk=holoCaM-CaMKII.loop4.water2.frame191.chk
%nprocshared=20
%mem=10GB
%nosave
#b3lyp/svp scf=(tight,noincore,xqc) Test 
#IOP(5/87=12) Density=Current Pop=(MK,readradii) iop(6/33=2) iop(6/42=6)

holoCaM-CaMKII.loop4.water2.frame191 

   -3  1 
C         12.43174       58.52100       34.89958
C         13.20366       57.40945       35.54222
O         13.60875       56.48326       34.85332
H         11.42652       58.59955       35.36043
H         12.97909       59.47708       35.04878
H         12.32370       58.34630       33.80791
N         13.49374       57.46792       36.87059
C         14.35936       56.49394       37.51570
C         13.67057       55.13372       37.65191
O         12.66582       55.03369       38.34208
C         14.81496       57.02477       38.88853
C         15.95370       56.23052       39.44766
O         16.48715       55.21870       38.74257
O         16.41125       56.51765       40.53713
H         13.17137       58.29019       37.40513
H         15.27326       56.42131       36.88467
H         13.95764       57.02354       39.59720
H         15.18121       58.06858       38.78032
N         14.15795       54.04811       36.99054
C         13.53849       52.72213       37.00937
C         13.79187       51.97887       38.32640
O         12.83789       51.42918       38.85968
C         13.98958       51.89607       35.75614
C         13.50539       52.62935       34.46522
C         13.41547       50.46239       35.79865
C         13.91349       51.96570       33.14825
H         14.97227       54.19375       36.37871
H         12.43571       52.82803       36.88285
H         15.09914       51.81799       35.74944
H         13.91940       53.65799       34.44069
H         12.39549       52.71389       34.47820
H         13.76100       49.86436       34.93187
H         13.76915       49.91956       36.69905
H         12.30440       50.48189       35.80354
H         13.55464       52.59046       32.30195
H         15.01626       51.87771       33.07989
H         13.45198       50.96485       33.03303
N         15.03533       51.88444       38.89115
C         15.33226       51.02647       40.05164
C         15.50272       51.78768       41.36662
O         15.71666       51.13870       42.38200
C         16.54202       50.10666       39.74277
C         17.78532       50.88749       39.42869
O         18.27639       51.75702       40.32602
O         18.27432       50.83289       38.31206
H         15.80264       52.42724       38.47018
H         14.47127       50.34972       40.24504
H         16.28252       49.47401       38.86601
H         16.74342       49.43302       40.60280
N         15.32827       53.13397       41.45657
C         15.27596       53.83997       42.72777
C         16.58817       53.92705       43.47649
O         16.63403       53.55185       44.63955
H         15.11009       53.67590       40.60918
H         14.49246       53.38183       43.37217
H         14.96224       54.88806       42.53150
N         17.65885       54.53794       42.90018
C         18.84037       54.98619       43.63426
C         18.92403       56.52041       43.58952
O         19.92634       57.07645       44.01539
C         20.12663       54.29709       43.11838
C         20.54056       54.59859       41.70411
O         21.66493       54.04122       41.21702
O         19.89229       55.34669       40.99597
H         17.58313       54.80725       41.91229
H         18.76992       54.70003       44.70746
H         20.00178       53.19746       43.21985
H         20.96886       54.60143       43.77822
N         17.86489       57.26827       43.14828
C         17.81749       58.72077       43.13143
C         18.49563       59.37834       41.94211
O         18.36721       60.59038       41.83529
H         16.98101       56.80063       42.91222
H         18.18393       59.12998       44.09686
H         16.74650       59.01066       43.04240
N         19.20421       58.68595       41.00207
C         19.79049       59.31435       39.81534
C         19.31549       58.64336       38.53422
O         18.60882       57.64528       38.59209
C         21.33065       59.27942       39.90238
C         21.84366       60.21489       41.00675
C         23.34854       60.27665       41.02140
N         24.08621       59.18399       41.32335
O         23.90925       61.33189       40.76420
H         19.34266       57.67698       41.12545
H         19.47331       60.37734       39.73538
H         21.76522       59.64479       38.94775
H         21.68031       58.23609       40.06174
H         21.47590       59.89336       42.00391
H         21.45088       61.23629       40.80172
H         23.63271       58.28945       41.55760
H         25.11570       59.23750       41.33410
N         19.66850       59.17207       37.32380
C         19.27831       58.61225       36.03497
C         20.53179       58.20596       35.27326
O         21.32643       59.06050       34.90346
C         18.40939       59.63944       35.25268
C         18.14077       59.20953       33.80036
C         17.06369       59.84827       35.96909
H         20.24435       60.02847       37.30839
H         18.66256       57.70284       36.18314
H         18.94988       60.61180       35.21297
H         19.09094       59.13072       33.23304
H         17.61233       58.23526       33.76267
H         17.52194       59.97587       33.28541
H         16.45453       60.60859       35.43526
H         16.48836       58.89606       35.99773
H         17.21622       60.20026       37.01031
N         20.77120       56.88624       35.03060
C         21.93488       56.37304       34.30647
C         21.80886       56.66765       32.80918
O         20.80487       57.22212       32.40061
C         22.00734       54.84338       34.57316
C         23.25500       54.15421       34.08807
N         24.47280       54.52114       34.55021
O         23.16453       53.23537       33.28881
H         20.10518       56.20320       35.42361
H         22.84855       56.84735       34.72572
H         21.10771       54.35657       34.13419
H         21.97683       54.67890       35.67006
H         24.57050       55.28122       35.23846
H         25.32213       54.03742       34.22321
N         22.78126       56.30299       31.92510
C         22.63799       56.39609       30.46881
C         21.52351       55.47579       29.98785
O         20.65576       55.91755       29.24846
C         23.96811       55.98668       29.79252
C         23.91604       56.01205       28.27796
C         23.62657       57.19952       27.58245
C         24.17639       54.83967       27.54552
C         23.59965       57.21181       26.18307
C         24.15317       54.85581       26.14765
C         23.86590       56.04353       25.46120
O         23.84694       56.07478       24.11296
H         23.65518       55.90950       32.29860
H         22.41794       57.44664       30.17623
H         24.24860       54.96712       30.13854
H         24.76699       56.68330       30.12604
H         23.42513       58.11709       28.11947
H         24.40453       53.91137       28.05427
H         23.37675       58.13244       25.65819
H         24.36218       53.94537       25.59963
H         24.03706       55.29153       23.57661
N         21.49918       54.17329       30.38846
C         20.49834       53.18953       29.97501
C         19.09603       53.69544       30.25740
O         18.28010       53.73052       29.34694
C         20.72384       51.84279       30.70632
C         22.07557       51.19440       30.35545
C         22.24416       49.88439       31.06949
O         22.25595       49.84418       32.41606
O         22.38915       48.85240       30.43410
H         22.22901       53.88081       31.04960
H         20.58775       53.00631       28.88082
H         19.91749       51.13605       30.40777
H         20.65811       51.99894       31.80670
H         22.92351       51.84526       30.64891
H         22.12660       51.03219       29.25675
N         18.76805       54.15006       31.49576
C         17.46534       54.71960       31.83701
C         17.13058       55.87901       30.91154
O         16.05855       55.87693       30.32234
C         17.46267       55.16472       33.31594
C         17.54100       53.93726       34.24728
C         17.59030       54.28010       35.70504
O         17.61074       53.28411       36.60853
O         17.60556       55.43787       36.08638
H         19.50662       54.13201       32.21508
H         16.66723       53.95248       31.71619
H         16.51788       55.70703       33.54344
H         18.31724       55.85376       33.49981
H         18.43988       53.32773       34.02413
H         16.64177       53.31042       34.07583
N         18.02644       56.87405       30.68888
C         17.78012       57.96211       29.76927
H         16.92132       58.57017       30.12011
H         18.68004       58.61173       29.70580
H         17.56874       57.56094       28.75458
H         18.93365       56.83265       31.15486
Ca        18.02401       53.82820       39.56110
O         20.37250       52.71657       37.19965
H         20.49976       52.52816       38.16346
H         21.17093       52.33004       36.76098
O         21.29090       55.46917       38.17063
H         22.00247       54.78079       38.15620
H         21.50741       56.02673       38.95825

Ca 1.0



