%chk=holoCaM.loop3.water1.frame89.chk
%nprocshared=20
%mem=10GB
%nosave
#b3lyp/svp scf=(tight,noincore,xqc) Test 
#IOP(5/87=12) Density=Current Pop=(MK,readradii) iop(6/33=2) iop(6/42=6)

holoCaM.loop3.water1.frame89 

   0  1 
C          6.73900       -1.27777       37.88387
C          5.63465       -2.13870       37.35380
O          5.18011       -3.02738       38.05761
H          7.62905       -1.37246       37.22798
H          6.40816       -0.21858       37.90722
H          7.01788       -1.58914       38.91361
N          5.12203       -1.91182       36.11468
C          4.04608       -2.72699       35.56912
C          4.60578       -4.09407       35.20128
O          5.49677       -4.15597       34.36493
C          3.40136       -2.00185       34.37340
C          2.05251       -2.56719       34.03490
O          1.91188       -3.81464       33.56656
O          1.05993       -1.88230       34.20073
H          5.48175       -1.11039       35.57237
H          3.25692       -2.80211       36.34912
H          4.07441       -1.98777       33.48865
H          3.23065       -0.94498       34.67978
N          4.19095       -5.22445       35.84140
C          4.81809       -6.52999       35.61357
C          4.57145       -7.10281       34.22014
O          5.26080       -8.04613       33.85688
C          4.38346       -7.54116       36.69371
C          4.67225       -7.15296       38.16944
C          6.16508       -7.06964       38.55661
C          6.84154       -5.71396       38.27433
N          8.26846       -5.76758       38.58601
H          3.47251       -5.12860       36.57395
H          5.91198       -6.41185       35.67314
H          4.87816       -8.51785       36.49873
H          3.28835       -7.70190       36.59465
H          4.24609       -7.99322       38.76065
H          4.13169       -6.23713       38.49315
H          6.70856       -7.91148       38.07775
H          6.23673       -7.20542       39.65864
H          6.35988       -4.94738       38.91376
H          6.74026       -5.37966       37.23249
H          8.41318       -6.00547       39.59336
H          8.73502       -6.48199       37.98043
H          8.69651       -4.83342       38.38983
N          3.60445       -6.61242       33.39764
C          3.35465       -7.09667       32.03944
C          3.39451       -5.95118       31.01280
O          3.14658       -6.20601       29.84275
C          2.02979       -7.88722       32.03871
C          0.86922       -7.03372       32.42312
O          0.30476       -7.16369       33.63284
O          0.46839       -6.17291       31.66505
H          2.97875       -5.89104       33.76790
H          4.13464       -7.82907       31.73567
H          2.13591       -8.69987       32.79112
H          1.83205       -8.36441       31.05467
N          3.76105       -4.68022       31.36816
C          3.94154       -3.57624       30.43573
C          2.67879       -2.94348       29.87827
O          2.83011       -2.00770       29.10448
H          4.04488       -4.49023       32.33464
H          4.59771       -3.91026       29.60226
H          4.47621       -2.75936       30.96781
N          1.41603       -3.36397       30.18508
C          0.23914       -2.76964       29.54578
C         -0.08083       -1.36293       30.05795
O         -0.92173       -0.70699       29.46065
C         -0.98575       -3.71264       29.61545
C         -1.70752       -3.71618       30.93921
N         -3.04131       -3.48285       30.98986
O         -1.09462       -3.93887       31.96819
H          1.30214       -4.16892       30.80515
H          0.48140       -2.70891       28.46124
H         -0.64954       -4.74385       29.36914
H         -1.71079       -3.41279       28.82871
H         -3.58422       -3.31220       30.13063
H         -3.54393       -3.49230       31.88763
N          0.51421       -0.85295       31.17852
C          0.28221        0.49494       31.68209
C         -0.61459        0.54910       32.90978
O         -0.76546        1.63692       33.44927
H          1.17130       -1.43630       31.71029
H         -0.17992        1.14066       30.90546
H          1.27317        0.94067       31.92118
N         -1.29447       -0.54251       33.37308
C         -2.23261       -0.50383       34.49649
C         -1.85575       -1.53731       35.54291
O         -1.60778       -2.67705       35.17098
C         -3.67015       -0.79427       34.02372
C         -4.17173        0.21546       33.01788
C         -3.72599        0.18465       31.68503
C         -5.10666        1.19158       33.40298
C         -4.20525        1.11331       30.75675
C         -5.57730        2.12549       32.47571
C         -5.12945        2.08760       31.14766
O         -5.58109        2.97772       30.24129
H         -1.19352       -1.43927       32.87678
H         -2.26008        0.50392       34.96922
H         -4.31250       -0.74909       34.93188
H         -3.77402       -1.81731       33.60421
H         -3.01892       -0.56578       31.35836
H         -5.46446        1.23857       34.42405
H         -3.85939        1.07319       29.73148
H         -6.29089        2.87641       32.79085
H         -6.22212        3.66557       30.47126
N         -1.86266       -1.23462       36.87727
C         -1.50987       -2.20602       37.91308
C         -2.71228       -2.60862       38.76573
O         -3.30058       -1.77797       39.44342
C         -0.31195       -1.72064       38.79184
C         -0.58165       -0.38094       39.53473
C          0.95859       -1.64784       37.92728
C          0.53703        0.02594       40.49491
H         -2.15217       -0.28869       37.16781
H         -1.15633       -3.13898       37.43443
H         -0.13322       -2.50513       39.56034
H         -1.48751       -0.47421       40.16201
H         -0.74117        0.44339       38.80910
H          0.86353       -0.86609       37.14504
H          1.85542       -1.44053       38.54445
H          1.13432       -2.62891       37.43704
H          1.48144        0.23707       39.95596
H          0.24192        0.95404       41.02904
H          0.70657       -0.77286       41.24616
N         -3.09423       -3.91877       38.80717
C         -4.08189       -4.46646       39.73609
C         -3.57242       -4.35396       41.17148
O         -2.48072       -3.85743       41.38048
C         -4.33569       -5.95333       39.39508
O         -3.15161       -6.69449       39.52756
H         -2.62625       -4.57920       38.17727
H         -5.04135       -3.91719       39.62372
H         -4.70175       -6.02195       38.34605
H         -5.11409       -6.37614       40.06654
H         -3.37625       -7.62955       39.28308
N         -4.30823       -4.82627       42.21735
C         -3.81556       -4.81728       43.59409
C         -2.56617       -5.67381       43.73243
O         -1.56905       -5.18873       44.25117
C         -4.89652       -5.33428       44.54843
H         -5.24151       -5.21795       42.02706
H         -3.58935       -3.77145       43.90132
H         -5.18072       -6.37970       44.30552
H         -4.52577       -5.29479       45.59580
H         -5.79852       -4.68995       44.47632
N         -2.54880       -6.95612       43.26727
C         -1.40119       -7.85551       43.37815
C         -0.13820       -7.23756       42.80785
O          0.85922       -7.19081       43.51325
C         -1.69864       -9.18243       42.66932
H         -3.39942       -7.30617       42.79752
H         -1.22260       -8.08496       44.45301
H         -1.89758       -9.01781       41.58845
H         -0.83667       -9.87600       42.77381
H         -2.58945       -9.66454       43.12588
N         -0.11979       -6.70719       41.55277
C          1.05717       -6.05334       40.98031
C          1.55881       -4.95098       41.89647
O          2.71026       -5.01161       42.30707
C          0.74165       -5.50766       39.57142
C          0.61842       -6.65891       38.56188
C          0.30866       -6.14776       37.19324
O         -0.86699       -5.55002       36.95960
O          1.10181       -6.29652       36.27931
H         -0.99210       -6.73696       41.00520
H          1.88392       -6.79267       40.88218
H          1.57761       -4.85785       39.22867
H         -0.18698       -4.89410       39.60101
H         -0.17958       -7.37232       38.85609
H          1.58654       -7.20373       38.53420
N          0.74904       -3.93906       42.29911
C          1.19196       -2.92640       43.23160
H          2.04378       -2.35913       42.80202
H          0.36081       -2.22364       43.45209
H          1.50826       -3.40507       44.18394
H         -0.21686       -3.90351       41.96175
Ca        -1.01558       -5.46419       34.26134
O         -3.80801       -5.16661       33.86107
H         -3.76655       -5.49264       34.79501
H         -3.47192       -5.92313       33.31636

Ca 1.0



