%chk=holoCaM-CaMKII.loop3.water1.frame201.chk
%nprocshared=20
%mem=10GB
%nosave
#b3lyp/svp scf=(tight,noincore,xqc) Test 
#IOP(5/87=12) Density=Current Pop=(MK,readradii) iop(6/33=2) iop(6/42=6)

holoCaM-CaMKII.loop3.water1.frame201 

   0  1 
C         18.38897       51.45319       19.30350
C         19.55092       50.52723       19.49350
O         19.99207       50.35397       20.62126
H         17.52938       51.07807       19.89979
H         18.65795       52.47265       19.64322
H         18.07665       51.49492       18.23852
N         20.06460       49.84582       18.43363
C         21.07309       48.81478       18.59685
C         22.43092       49.39526       18.98532
O         23.00648       50.17244       18.23774
C         21.12076       47.93748       17.33673
C         21.88188       46.67547       17.56014
O         21.94778       45.85517       16.67041
O         22.49097       46.43983       18.73045
H         19.63744       49.98305       17.50425
H         20.71166       48.15980       19.41290
H         21.54723       48.50028       16.47908
H         20.08356       47.63185       17.07837
N         22.96515       49.06731       20.19344
C         24.17524       49.64627       20.77211
C         25.45343       49.23385       20.03855
O         26.30929       50.08452       19.84074
C         24.21956       49.25357       22.26827
C         25.16985       50.10044       23.12958
C         25.01079       49.69596       24.60569
C         25.82073       50.58904       25.55269
N         25.65615       50.14827       26.93940
H         22.41873       48.42212       20.78344
H         24.06849       50.75430       20.75227
H         24.43737       48.16871       22.37616
H         23.20280       49.44478       22.68281
H         24.89016       51.17262       23.01978
H         26.22408       49.97061       22.80465
H         25.32955       48.63797       24.72500
H         23.93939       49.77777       24.89781
H         25.46805       51.64117       25.45940
H         26.89771       50.55198       25.28012
H         26.01883       49.17326       27.04969
H         26.19527       50.78273       27.57155
H         24.64663       50.17790       27.21344
N         25.65713       47.94425       19.62805
C         26.89278       47.46126       18.99414
C         26.69056       47.01372       17.53945
O         27.65928       46.57943       16.93048
C         27.53844       46.36664       19.88440
C         26.60527       45.22765       20.17443
O         26.17313       45.06399       21.30443
O         26.13024       44.47810       19.17098
H         24.89847       47.26427       19.77927
H         27.64418       48.27974       18.93367
H         27.81187       46.84653       20.84945
H         28.47277       45.98030       19.42301
N         25.50697       47.19114       16.88111
C         25.35737       47.00350       15.44293
C         25.32165       45.57704       14.92422
O         25.19205       45.44993       13.71334
H         24.71416       47.62347       17.37394
H         26.16771       47.56243       14.92128
H         24.39631       47.46728       15.13010
N         25.40795       44.45831       15.70965
C         25.35094       43.11898       15.10876
C         23.99225       42.80401       14.45709
O         23.90924       41.82287       13.73329
C         25.73845       41.98207       16.09160
C         24.76496       41.72201       17.21472
N         24.84791       40.58407       17.94013
O         23.88202       42.51848       17.46144
H         25.54974       44.56015       16.72183
H         26.12609       43.10381       14.30994
H         26.74832       42.15599       16.52175
H         25.78797       41.05053       15.48837
H         25.57199       39.88107       17.73721
H         24.16039       40.38763       18.68289
N         22.88697       43.56783       14.70013
C         21.57275       43.35591       14.10070
C         20.49412       42.95984       15.10410
O         19.34941       42.83234       14.68997
H         22.97846       44.34976       15.34566
H         21.60916       42.55908       13.32785
H         21.27410       44.29999       13.59681
N         20.78429       42.66586       16.40431
C         19.83439       42.11686       17.36847
C         19.87121       42.90160       18.66349
O         20.95891       43.13818       19.17762
C         20.17877       40.64804       17.68824
C         20.10727       39.77316       16.46004
C         21.12236       39.81731       15.48833
C         19.01931       38.90420       16.27412
C         21.04457       39.01566       14.34744
C         18.93984       38.10789       15.12855
C         19.95304       38.16192       14.16044
O         19.88848       37.39996       13.05044
H         21.75282       42.74154       16.71332
H         18.79878       42.11255       16.95874
H         19.42198       40.30069       18.42759
H         21.17784       40.54077       18.16582
H         21.97885       40.46697       15.61447
H         18.22333       38.85392       17.00692
H         21.83400       39.06037       13.60788
H         18.08905       37.45212       14.99398
H         19.14839       36.79960       12.88188
N         18.71774       43.28519       19.28294
C         18.69803       44.05337       20.52546
C         18.08598       43.26869       21.66967
O         17.14960       42.50740       21.45625
C         17.99974       45.42755       20.32515
C         16.48117       45.30680       20.02951
C         18.73431       46.18585       19.21371
C         15.78055       46.65973       19.88550
H         17.81660       43.02258       18.85492
H         19.74067       44.28978       20.83803
H         18.12135       46.00242       21.27166
H         15.99122       44.77818       20.87413
H         16.30631       44.72332       19.10177
H         19.81448       46.19354       19.45025
H         18.59899       45.68743       18.23006
H         18.38866       47.23575       19.13653
H         15.92903       47.27308       20.79937
H         16.15567       47.21497       19.00175
H         14.69243       46.49684       19.73737
N         18.54893       43.46067       22.93651
C         18.00308       42.81670       24.12349
C         17.38647       43.85715       25.04339
O         17.42881       45.04088       24.72753
C         19.12880       42.04622       24.84219
O         20.14372       42.92868       25.24116
H         19.32293       44.12819       23.07713
H         17.20319       42.09452       23.84852
H         19.54878       41.28882       24.14404
H         18.72207       41.52192       25.73458
H         20.82302       42.38039       25.71304
N         16.79729       43.48717       26.21361
C         16.26407       44.44348       27.17929
C         17.35783       45.37263       27.66982
O         17.10652       46.55875       27.81832
C         15.64263       43.71636       28.37380
H         16.74989       42.48053       26.44108
H         15.45327       45.04279       26.70569
H         16.40085       43.09920       28.90085
H         15.21832       44.45512       29.08816
H         14.81752       43.05883       28.02584
N         18.61539       44.89529       27.89800
C         19.73338       45.74113       28.29793
C         19.97810       46.84128       27.27813
O         19.96463       48.00675       27.65104
C         21.00354       44.89172       28.45805
H         18.78923       43.88873       27.75494
H         19.50782       46.19732       29.28735
H         20.83845       44.10130       29.22099
H         21.27987       44.39915       27.50105
H         21.85310       45.52612       28.78890
N         20.21208       46.54090       25.96835
C         20.50302       47.55637       24.95424
C         19.32511       48.48927       24.69580
O         19.52065       49.49802       24.03133
C         20.87881       46.89326       23.61222
C         22.13621       46.01464       23.71019
C         22.36772       45.28284       22.42340
O         22.36708       43.93625       22.40218
O         22.55096       45.90084       21.39063
H         20.20447       45.54722       25.69809
H         21.36586       48.16215       25.31277
H         21.05947       47.67466       22.84045
H         20.01482       46.28027       23.27897
H         22.02964       45.25668       24.51128
H         23.01780       46.64830       23.94682
N         18.06833       48.20323       25.13396
C         16.93768       49.06171       24.86149
H         16.01288       48.60935       25.28019
H         17.09413       50.05536       25.33052
H         16.80660       49.17970       23.76465
H         17.88939       47.33626       25.64844
Ca        23.93772       44.77174       18.96062
O         24.34000       42.08075       20.79807
H         23.48965       41.57638       20.74028
H         24.80733       41.69058       21.57867

Ca 1.0



