%chk=holoCaM-CaMKII.loop2.water2.frame378.chk
%nprocshared=20
%mem=10GB
%nosave
#b3lyp/svp scf=(tight,noincore,xqc) Test 
#IOP(5/87=12) Density=Current Pop=(MK,readradii) iop(6/33=2) iop(6/42=6)

holoCaM-CaMKII.loop2.water2.frame378 

   -2  1 
C         64.30107       56.53414       70.02886
C         64.68103       56.45249       71.48166
O         65.72509       55.90089       71.79635
H         63.34036       57.07632       69.89020
H         65.08719       57.08439       69.46990
H         64.19225       55.51534       69.60509
N         63.87978       57.01445       72.42555
C         64.20265       57.05580       73.84731
C         64.21250       55.65398       74.45710
O         63.26902       54.90628       74.24145
C         63.16661       57.94178       74.56876
C         63.59486       58.37180       75.94062
O         64.83109       58.10166       76.40484
O         62.83451       59.04580       76.61518
H         63.01832       57.48459       72.10532
H         65.19393       57.55151       73.95565
H         62.19163       57.41011       74.61406
H         63.02371       58.88433       73.99718
N         65.23425       55.25510       75.26695
C         65.34758       53.93028       75.87425
C         65.26239       53.97116       77.40237
O         65.45253       52.92930       78.01551
C         66.69689       53.32960       75.45305
H         65.97397       55.93350       75.47800
H         64.54331       53.25354       75.51304
H         67.53596       53.95586       75.82859
H         66.81696       52.30265       75.86040
H         66.76439       53.27340       74.34609
N         64.97386       55.11731       78.09003
C         65.02306       55.20618       79.55632
C         64.42102       56.49120       80.17303
O         64.47770       56.59879       81.39098
C         66.48833       55.01702       80.02523
C         67.42943       55.86922       79.22841
O         67.25529       57.19482       79.14746
O         68.32558       55.34660       78.58414
H         64.77047       55.95131       77.54258
H         64.40959       54.38992       79.99734
H         66.79471       53.95937       79.88106
H         66.58955       55.23390       81.10972
N         63.76798       57.45982       79.46093
C         63.08774       58.59231       80.08220
C         63.97640       59.62936       80.75336
O         63.41843       60.55455       81.32652
H         63.63326       57.36327       78.45488
H         62.36580       58.19731       80.82951
H         62.49879       59.12773       79.30604
N         65.33975       59.56641       80.74376
C         66.18969       60.52810       81.45541
C         66.19640       61.94940       80.86002
O         66.88941       62.79597       81.40759
C         67.62952       59.97285       81.59573
C         68.41031       59.86749       80.31483
N         69.67553       59.38873       80.33386
O         67.91241       60.21493       79.25830
H         65.78810       58.77011       80.27883
H         65.81181       60.59553       82.49979
H         67.57408       58.96294       82.05944
H         68.20271       60.63025       82.28371
H         70.10855       59.08231       81.21677
H         70.22593       59.32290       79.46568
N         65.44131       62.30027       79.77693
C         65.34035       63.66194       79.26580
C         66.41069       64.07154       78.26552
O         66.30861       65.18266       77.76718
H         64.80076       61.61213       79.37046
H         65.28169       64.38384       80.10983
H         64.37900       63.74170       78.71326
N         67.44041       63.25375       77.89821
C         68.44135       63.61838       76.89155
C         68.51090       62.59307       75.76002
O         67.89835       61.54056       75.83430
C         69.83738       63.74548       77.56388
C         69.89222       64.93992       78.51655
O         70.15945       62.57798       78.27825
H         67.53117       62.34117       78.35044
H         68.18793       64.59153       76.41814
H         70.62541       63.94429       76.80220
H         70.40373       61.88351       77.61281
H         69.15376       64.83182       79.33749
H         70.90874       65.02002       78.95862
H         69.68362       65.87850       77.95871
N         69.33304       62.84010       74.69958
C         69.68465       61.86408       73.67450
C         71.07154       61.38016       74.02934
O         71.97272       62.18887       74.20159
C         69.63661       62.49437       72.24403
C         68.18516       62.73907       71.75120
C         70.41991       61.66484       71.20092
C         67.39956       61.46384       71.40083
H         69.85302       63.73011       74.69006
H         69.01539       60.98116       73.70048
H         70.14809       63.48102       72.29644
H         68.22528       63.35359       70.82497
H         67.62749       63.31875       72.51674
H         70.35816       62.14337       70.20063
H         71.49591       61.61657       71.46601
H         70.04069       60.62455       71.13515
H         67.31478       60.78208       72.26592
H         66.37735       61.73691       71.06541
H         67.87723       60.91296       70.56344
N         71.30483       60.04518       74.13887
C         72.60431       59.48882       74.48215
C         73.33107       59.14880       73.20651
O         72.77772       59.35243       72.14118
C         72.43311       58.20952       75.32285
C         71.48912       58.37127       76.47078
O         70.20129       58.65149       76.20916
O         71.84596       58.13939       77.61417
H         70.55349       59.39138       73.88063
H         73.19622       60.23392       75.05725
H         73.42397       57.86225       75.68673
H         71.99520       57.40989       74.68529
N         74.58991       58.63515       73.22689
C         75.27193       58.29364       71.98914
C         74.56096       57.14792       71.25696
O         74.22268       57.36338       70.09859
C         76.77487       58.04212       72.22625
C         77.48535       57.78559       70.92058
C         77.49225       58.76163       69.90570
C         78.13755       56.56245       70.70051
C         78.12974       58.50992       68.68995
C         78.77795       56.31686       69.48301
C         78.77155       57.28810       68.47783
H         75.07391       58.51687       74.12802
H         75.23425       59.19555       71.33989
H         76.93961       57.20716       72.92569
H         77.22208       58.94229       72.70186
H         77.00199       59.71632       70.04836
H         78.14485       55.79763       71.46724
H         78.12339       59.26308       67.91261
H         79.27613       55.37115       69.31813
H         79.26387       57.09477       67.53448
N         74.26231       55.92968       71.81983
C         73.54573       54.85677       71.13121
C         72.27237       55.31338       70.44090
O         72.06633       54.99963       69.27893
C         73.17820       53.88116       72.26067
C         74.35343       54.03021       73.18798
C         74.55770       55.54217       73.19000
H         74.23684       54.37314       70.40447
H         72.29607       54.25508       72.83033
H         72.95622       52.84672       71.92235
H         74.22778       53.57967       74.19568
H         75.22894       53.55552       72.68842
H         73.84636       56.05851       73.86710
H         75.59532       55.72132       73.50791
N         71.37800       56.07424       71.12746
C         70.10213       56.54203       70.59202
C         70.33081       57.37566       69.34500
O         69.71320       57.10248       68.32511
C         69.34712       57.35695       71.66749
C         69.03671       56.50070       72.91761
C         68.38931       57.27066       74.02772
O         68.19367       56.66040       75.20858
O         68.08395       58.44454       73.89928
H         71.64450       56.35069       72.08201
H         69.45971       55.67127       70.33030
H         68.38848       57.73434       71.24670
H         69.96897       58.22908       71.95879
H         69.96791       56.08872       73.34972
H         68.38360       55.64526       72.64131
N         71.25388       58.37482       69.34735
C         71.58287       59.18546       68.19488
H         72.64410       59.00707       67.91720
H         70.94478       58.95296       67.31790
H         71.45988       60.25732       68.45408
H         71.78884       58.54515       70.20260
Ca        68.64263       58.16893       77.70291
O         65.52499       60.92682       77.03341
H         64.61881       60.67581       77.33312
H         65.40374       61.82388       76.63303
O         65.25593       60.57778       74.23000
H         66.10607       60.07330       74.19549
H         65.16227       60.98235       73.33274

Ca 1.0



