%chk=holoCaM-CaMKII.loop2.water2.frame318.chk
%nprocshared=20
%mem=10GB
%nosave
#b3lyp/svp scf=(tight,noincore,xqc) Test 
#IOP(5/87=12) Density=Current Pop=(MK,readradii) iop(6/33=2) iop(6/42=6)

holoCaM-CaMKII.loop2.water2.frame318 

   -2  1 
C         57.87910       25.54763       56.33953
C         57.60417       24.29213       55.56008
O         57.41846       23.23696       56.14708
H         58.85922       25.97333       56.03852
H         57.08549       26.29558       56.11953
H         57.88495       25.35340       57.43221
N         57.53297       24.35832       54.20619
C         57.16404       23.24018       53.34640
C         58.16574       22.09370       53.35910
O         59.33543       22.31671       53.07985
C         57.01032       23.75021       51.90302
C         56.60701       22.63899       50.99070
O         55.50962       21.91407       51.27315
O         57.29644       22.35960       50.02331
H         57.68650       25.28218       53.77046
H         56.16873       22.86393       53.66938
H         57.96453       24.19914       51.54776
H         56.22319       24.53209       51.87382
N         57.72788       20.81498       53.57257
C         58.57200       19.63113       53.44850
C         58.06045       18.62238       52.40435
O         58.76972       17.65054       52.18190
C         58.66242       18.94152       54.81482
H         56.73994       20.67415       53.81338
H         59.59896       19.92986       53.14608
H         59.06549       19.64630       55.57267
H         57.65652       18.60222       55.14594
H         59.33670       18.05953       54.76704
N         56.84457       18.73067       51.77327
C         56.30581       17.68804       50.88245
C         55.79063       18.19228       49.52429
O         55.34631       17.36882       48.73570
C         55.20775       16.89538       51.62869
C         53.99389       17.68160       52.05493
O         53.88596       18.87326       51.81827
O         53.00852       17.05099       52.72035
H         56.23324       19.51933       52.01068
H         57.10077       16.94602       50.64928
H         55.66267       16.45297       52.54138
H         54.86800       16.05566       50.98389
N         55.83912       19.50402       49.16245
C         55.43097       20.01526       47.85636
C         53.93648       20.00115       47.55196
O         53.58742       20.42702       46.45970
H         56.26900       20.16651       49.80805
H         55.97242       19.45088       47.06615
H         55.74957       21.07801       47.78434
N         52.99367       19.54443       48.42695
C         51.56171       19.48886       48.10252
C         50.84296       20.84878       48.07400
O         49.63635       20.85561       47.86891
C         50.84548       18.46263       49.00794
C         50.81637       18.74928       50.48302
N         50.26465       17.83040       51.30831
O         51.28854       19.77920       50.94052
H         53.30777       19.14689       49.32035
H         51.45551       19.04549       47.08683
H         51.36034       17.48618       48.87125
H         49.79588       18.33854       48.66258
H         49.87130       16.95615       50.93110
H         50.23835       17.97117       52.32304
N         51.50555       22.03642       48.19132
C         50.86521       23.33603       48.02325
C         50.05876       23.83893       49.20908
O         49.52831       24.93303       49.09749
H         52.52695       22.03181       48.27377
H         50.23731       23.32295       47.10533
H         51.66088       24.09618       47.86311
N         49.94778       23.14359       50.37799
C         49.23899       23.66115       51.55449
C         50.19131       23.76308       52.73878
O         51.33477       23.35979       52.62527
C         48.05501       22.72086       51.90298
C         46.99419       22.71777       50.80322
O         48.50712       21.40540       52.09970
H         50.39443       22.22110       50.45696
H         48.83850       24.68109       51.37034
H         47.53126       23.07905       52.81969
H         48.83829       21.35285       53.03285
H         47.41754       22.35790       49.84238
H         46.15691       22.04782       51.09498
H         46.58893       23.74272       50.66378
N         49.74602       24.23915       53.94104
C         50.52608       24.12359       55.16813
C         49.85084       23.03423       55.96150
O         48.70718       23.20171       56.36112
C         50.60338       25.46308       55.96233
C         51.33771       26.54433       55.13151
C         51.30708       25.24192       57.32311
C         51.34002       27.92777       55.79155
H         48.77256       24.56575       54.01917
H         51.56514       23.79854       54.94608
H         49.56565       25.81123       56.16307
H         50.82996       26.65303       54.14981
H         52.38827       26.23115       54.94681
H         51.31835       26.16550       57.93434
H         50.76464       24.49107       57.93286
H         52.35102       24.89042       57.17683
H         50.29867       28.27067       55.96937
H         51.89468       27.92819       56.75138
H         51.84362       28.65620       55.12224
N         50.49660       21.85709       56.18199
C         49.88429       20.76576       56.91110
C         50.05819       21.00147       58.39567
O         50.76059       21.92617       58.78067
C         50.44840       19.40162       56.45135
C         50.02849       19.05778       55.03706
O         50.53223       19.67651       53.94507
O         49.21200       18.16593       54.86970
H         51.46497       21.75027       55.86591
H         48.78974       20.75432       56.70673
H         50.00554       18.62647       57.11233
H         51.55403       19.34649       56.56312
N         49.39044       20.23288       59.29862
C         49.47968       20.46557       60.73248
C         50.89694       20.26157       61.25179
O         51.34956       21.13143       61.98018
C         48.46087       19.61576       61.51971
C         48.56034       19.90175       63.00163
C         48.31326       21.19386       63.50392
C         48.92973       18.88034       63.89227
C         48.44339       21.45641       64.87006
C         49.05647       19.14770       65.25807
C         48.81575       20.43456       65.74640
H         48.76553       19.48934       58.95044
H         49.19113       21.52454       60.91975
H         48.62538       18.53976       61.33134
H         47.43252       19.85334       61.17090
H         48.02796       22.00113       62.84138
H         49.13053       17.88017       63.52901
H         48.25933       22.45383       65.24824
H         49.34698       18.35717       65.93710
H         48.91925       20.64036       66.80353
N         51.66995       19.16944       60.95076
C         53.04253       19.00873       61.41312
C         53.90069       20.22268       61.09239
O         54.57504       20.74093       61.97098
C         53.54833       17.78225       60.63063
C         52.28313       16.97759       60.45583
C         51.27910       18.06496       60.09767
H         53.02943       18.79489       62.50532
H         53.85739       18.07424       59.60133
H         54.39869       17.24845       61.10546
H         52.34324       16.14764       59.71950
H         52.00536       16.55978       61.45029
H         51.38623       18.38219       59.03885
H         50.26694       17.66839       60.28534
N         53.90693       20.72067       59.82491
C         54.74657       21.82981       59.37436
C         54.35962       23.15758       60.00845
O         55.17310       24.07082       59.98863
C         54.63737       21.96225       57.84146
C         55.14701       20.69202       57.12637
C         54.74534       20.64264       55.68692
O         54.89946       19.60501       55.06247
O         54.06027       21.65247       55.12579
H         53.29167       20.25677       59.13970
H         55.80229       21.59930       59.63977
H         55.20661       22.83960       57.46859
H         53.55998       22.12650       57.60493
H         54.67689       19.79361       57.57236
H         56.24616       20.58787       57.23935
N         53.12150       23.36488       60.53259
C         52.72147       24.62530       61.11752
H         51.66302       24.56578       61.45217
H         53.35942       24.85410       61.99675
H         52.80871       25.43917       60.36692
H         52.42480       22.61713       60.49377
Ca        52.40595       20.90506       53.83958
O         53.15401       22.99800       50.55240
H         53.83291       22.96741       49.83371
H         52.75216       23.89641       50.46190
O         53.90745       24.23302       53.56388
H         54.19086       25.07742       53.13321
H         54.17050       24.33660       54.51269

Ca 1.0



