%chk=holoCaM-CaMKII.loop3.water2.frame325.chk
%nprocshared=20
%mem=10GB
%nosave
#b3lyp/svp scf=(tight,noincore,xqc) Test 
#IOP(5/87=12) Density=Current Pop=(MK,readradii) iop(6/33=2) iop(6/42=6)

holoCaM-CaMKII.loop3.water2.frame325 

   0  1 
C         38.20045       61.73950       84.60464
C         37.66649       62.35379       85.86109
O         36.82937       61.75086       86.51833
H         39.29940       61.60937       84.69262
H         37.73188       60.75012       84.41925
H         37.97910       62.40902       83.74693
N         38.11941       63.57342       86.25859
C         37.64141       64.23898       87.46184
C         36.15307       64.52450       87.32336
O         35.75789       65.23304       86.40784
C         38.45894       65.51812       87.69217
C         38.15318       66.20291       88.98335
O         38.78797       67.19483       89.27898
O         37.22065       65.73354       89.83190
H         38.84218       64.03395       85.68249
H         37.83001       63.56313       88.32657
H         38.30013       66.22958       86.85270
H         39.53674       65.24267       87.72143
N         35.26699       63.92432       88.16431
C         33.82184       63.96908       87.96964
C         33.24009       65.36653       88.15158
O         32.53069       65.80816       87.25868
C         33.14523       62.91672       88.87152
C         31.68129       62.65110       88.49793
C         31.14092       61.44183       89.28126
C         29.71549       61.04082       88.86912
N         28.73096       62.07388       89.18998
H         35.64368       63.31831       88.91039
H         33.61922       63.62518       86.92944
H         33.21975       63.19672       89.93725
H         33.68930       61.95995       88.71322
H         31.62560       62.40902       87.41359
H         31.08027       63.56176       88.69760
H         31.17656       61.64333       90.37375
H         31.79608       60.56678       89.07105
H         29.44729       60.10946       89.41593
H         29.68549       60.81450       87.77960
H         27.77797       61.71771       88.94923
H         28.76159       62.29197       90.21230
H         28.90645       62.93923       88.63252
N         33.51414       66.13200       89.25337
C         32.94662       67.47025       89.45632
C         33.92216       68.59232       89.13200
O         33.52592       69.74602       89.23000
C         32.32319       67.62898       90.86751
C         33.26499       67.79787       92.03936
O         32.79289       67.93516       93.15624
O         34.60226       67.79683       91.90486
H         34.17965       65.76463       89.93827
H         32.10256       67.60562       88.74585
H         31.65346       66.76212       91.05781
H         31.69445       68.54531       90.86003
N         35.18788       68.34627       88.68758
C         36.09403       69.40428       88.27698
C         36.48722       70.29974       89.42520
O         36.23054       71.49358       89.35930
H         35.51409       67.37721       88.57506
H         35.61563       69.99685       87.46562
H         37.02125       68.95419       87.86194
N         37.15272       69.78567       90.49776
C         37.63005       70.59324       91.61924
C         39.15017       70.57087       91.74920
O         39.66233       71.25915       92.62125
C         36.99060       70.11015       92.93791
C         37.49855       68.75305       93.38294
N         38.14487       68.61338       94.56152
O         37.33074       67.77108       92.67900
H         37.33596       68.77510       90.50124
H         37.32850       71.65258       91.46730
H         35.88571       70.08395       92.82770
H         37.22553       70.85573       93.72851
H         38.30832       69.41900       95.18230
H         38.48179       67.68570       94.85157
N         39.93233       69.78798       90.95078
C         41.37435       69.70273       91.07043
C         41.86385       68.31525       91.44830
O         43.07701       68.16398       91.49284
H         39.50725       69.22222       90.21291
H         41.76471       70.41279       91.82934
H         41.81543       69.98611       90.08942
N         41.03253       67.25305       91.71661
C         41.57022       65.92496       92.04510
C         40.55978       64.78721       91.88168
O         39.39607       65.02657       91.59475
C         42.26706       65.92953       93.43616
C         41.35481       66.07802       94.63677
C         40.49967       65.03024       95.02442
C         41.39694       67.24390       95.42319
C         39.70676       65.14543       96.16825
C         40.59603       67.35910       96.56574
C         39.75033       66.31062       96.94289
O         38.98980       66.43038       98.04980
H         40.01420       67.37999       91.63753
H         42.34513       65.70102       91.27770
H         43.01567       66.74659       93.44612
H         42.85278       64.99735       93.57564
H         40.45834       64.10876       94.46447
H         42.05076       68.06463       95.15636
H         39.06604       64.32310       96.45745
H         40.63554       68.26246       97.16110
H         38.39675       65.72394       98.34436
N         40.99016       63.49480       91.99354
C         40.18724       62.30912       91.69444
C         40.09347       61.41555       92.92937
O         41.11123       61.14420       93.55152
C         40.86260       61.53066       90.52419
C         40.99952       62.42879       89.26480
C         40.06762       60.24901       90.18552
C         41.91740       61.82707       88.19835
H         41.97851       63.33268       92.23977
H         39.16365       62.58947       91.36048
H         41.88384       61.24224       90.85995
H         41.45990       63.40103       89.53712
H         39.99698       62.63639       88.83373
H         40.55833       59.66068       89.38689
H         40.00313       59.57699       91.06423
H         39.03573       60.50494       89.85958
H         41.99715       62.52818       87.34135
H         42.93413       61.67756       88.62265
H         41.53805       60.86128       87.81291
N         38.90082       60.85119       93.27909
C         38.71045       59.92749       94.39430
C         38.31689       58.54806       93.88044
O         38.21704       58.35863       92.67959
C         37.62480       60.48719       95.32933
O         38.02343       61.72185       95.85653
H         38.08147       61.03993       92.69178
H         39.65121       59.80429       94.97325
H         37.39346       59.78756       96.16293
H         36.67610       60.62968       94.76697
H         38.65431       61.52472       96.59738
N         38.11182       57.51800       94.75001
C         37.77615       56.15647       94.33350
C         36.44251       56.09005       93.61268
O         36.39366       55.57876       92.50267
C         37.73101       55.22916       95.55268
H         38.23332       57.70423       95.75711
H         38.57753       55.77304       93.66240
H         37.50777       54.18884       95.23186
H         38.71678       55.23296       96.06397
H         36.95368       55.55694       96.27546
N         35.31674       56.59444       94.19231
C         33.99208       56.55301       93.57531
C         34.01411       57.14754       92.18513
O         33.48129       56.54572       91.26316
C         32.99077       57.33563       94.43745
H         35.41523       57.05610       95.11016
H         33.63671       55.50064       93.51228
H         31.97711       57.29684       93.98295
H         32.93401       56.89537       95.45520
H         33.29641       58.40125       94.52812
N         34.64495       58.33002       91.97068
C         34.68861       59.00501       90.67977
C         35.32343       58.10814       89.63271
O         34.68140       57.81216       88.63428
C         35.44455       60.34885       90.79475
C         34.79497       61.25901       91.85514
C         35.41665       62.61132       91.92073
O         36.60889       62.76066       92.11148
O         34.62539       63.68034       91.83477
H         35.12295       58.75123       92.77782
H         33.64594       59.23856       90.36501
H         35.42255       60.85247       89.80523
H         36.50735       60.17453       91.06739
H         34.88968       60.82817       92.86840
H         33.71117       61.37618       91.63415
N         36.57298       57.60547       89.81642
C         37.19769       56.70253       88.87642
H         38.20077       56.40532       89.25158
H         36.57950       55.78593       88.76529
H         37.31531       57.19836       87.89075
H         37.09179       57.85080       90.66538
Ca        35.41263       65.74091       91.99352
O         36.75497       64.19716       94.64331
H         37.66211       63.89329       94.38848
H         36.71752       64.08955       95.62688
O         35.36980       66.67976       95.20332
H         36.09441       66.87196       95.85030
H         35.28777       67.50762       94.66785

Ca 1.0



