%chk=holoCaM-CaMKII.loop1.water2.frame382.chk
%nprocshared=20
%mem=10GB
%nosave
#b3lyp/svp scf=(tight,noincore,xqc) Test 
#IOP(5/87=12) Density=Current Pop=(MK,readradii) iop(6/33=2) iop(6/42=6)

holoCaM-CaMKII.loop1.water2.frame382 

   0  1 
C         50.35239       83.69521       69.63408
C         49.04929       83.98641       70.30868
O         48.55428       85.09661       70.19068
H         51.10501       83.40026       70.39400
H         50.21570       82.86833       68.90637
H         50.72008       84.59308       69.09221
N         48.41130       83.01303       71.01372
C         47.13014       83.24046       71.66471
C         47.31246       84.14557       72.88672
O         48.08562       83.78308       73.76283
C         46.49681       81.89211       72.08231
C         45.04873       82.06398       72.43043
O         44.47736       83.26878       72.26983
O         44.38437       81.11213       72.79821
H         48.82998       82.06981       71.03720
H         46.45425       83.69622       70.90462
H         47.06017       81.44777       72.93159
H         46.53067       81.17880       71.23195
N         46.64894       85.33638       73.00628
C         46.87595       86.28566       74.10138
C         45.64921       86.55547       74.97742
O         45.82808       87.24251       75.97415
C         47.42599       87.60623       73.51909
C         48.77400       87.37227       72.82155
C         49.31385       88.63809       72.14673
C         50.61527       88.37557       71.36396
N         51.72339       87.97020       72.23170
H         46.00785       85.60924       72.25713
H         47.63917       85.87830       74.80030
H         47.57964       88.35146       74.33018
H         46.68660       88.01962       72.79688
H         48.64631       86.60640       72.03988
H         49.49599       86.99573       73.57567
H         49.48042       89.43553       72.90241
H         48.55358       88.99826       71.41885
H         50.89899       89.31349       70.83798
H         50.44031       87.59320       70.59115
H         51.88965       88.69598       72.96592
H         51.53141       87.04569       72.67779
H         52.58832       87.87237       71.65248
N         44.40597       86.03982       74.72998
C         43.28765       86.17003       75.67762
C         42.86466       84.80090       76.22934
O         41.95969       84.75766       77.05103
C         42.11993       86.99973       75.08339
C         41.54288       86.40510       73.84236
O         41.04218       85.16245       73.87326
O         41.63807       86.99573       72.77865
H         44.25113       85.49266       73.87244
H         43.60611       86.74581       76.57338
H         42.50451       88.01777       74.85065
H         41.31141       87.10940       75.83777
N         43.54057       83.65676       75.90529
C         43.33341       82.37533       76.56070
C         42.02226       81.69737       76.24681
O         41.29879       81.35736       77.17204
H         44.32825       83.69378       75.24437
H         43.45775       82.50067       77.65905
H         44.12980       81.67815       76.21911
N         41.69609       81.38988       74.96090
C         40.56708       80.53833       74.58923
C         41.04059       79.31520       73.79070
O         40.20573       78.59163       73.26556
C         39.47626       81.36320       73.86928
C         39.82646       81.94840       72.53355
O         40.90533       81.74251       72.01027
O         38.91567       82.70602       71.89525
H         42.31045       81.73279       74.21004
H         40.05814       80.14633       75.49730
H         39.18414       82.19713       74.54394
H         38.58245       80.71933       73.72144
N         42.36776       78.98648       73.71454
C         42.89208       77.81637       73.02569
C         42.94479       77.92455       71.51063
O         43.45638       76.99575       70.90427
H         43.05455       79.53515       74.24885
H         42.33330       76.90829       73.34059
H         43.94881       77.68091       73.34670
N         42.46365       79.00466       70.82629
C         42.55573       79.14319       69.36950
C         43.24033       80.45517       68.99065
O         43.49370       81.27330       69.86076
C         41.14929       79.03736       68.73227
C         40.51902       77.65541       68.96566
O         40.29628       80.05434       69.19537
H         42.00811       79.75600       71.34797
H         43.17994       78.32530       68.94890
H         41.24739       79.15495       67.63171
H         40.02129       79.83478       70.12365
H         39.52938       77.60462       68.46485
H         41.17089       76.86148       68.54348
H         40.37552       77.46002       70.04993
N         43.61367       80.69217       67.69299
C         44.32374       81.90087       67.26685
C         43.56350       82.55674       66.11795
O         43.42472       81.94718       65.06736
C         45.78280       81.54800       66.84167
C         46.52593       80.84234       68.00774
C         46.54120       82.82027       66.40499
C         47.92890       80.35099       67.64643
H         43.43677       79.96221       66.98769
H         44.39669       82.61896       68.11222
H         45.73806       80.84617       65.97901
H         45.95314       79.94231       68.31630
H         46.59361       81.52816       68.87876
H         46.62277       83.53545       67.25137
H         47.55833       82.58085       66.03795
H         46.02420       83.32134       65.56379
H         48.60885       81.19132       67.40407
H         48.36275       79.81272       68.51550
H         47.87978       79.65103       66.78528
N         43.03991       83.80819       66.25935
C         42.30261       84.49947       65.19962
C         43.25636       85.10865       64.17764
O         44.46156       85.01996       64.34494
C         41.40995       85.62179       65.80384
C         40.40109       85.06451       66.80719
O         42.20914       86.58613       66.43457
H         43.13863       84.27085       67.17042
H         41.62252       83.77748       64.69550
H         40.83124       86.09762       64.98075
H         41.65633       87.40505       66.53214
H         39.76440       84.28888       66.33225
H         40.93445       84.62966       67.67032
H         39.74999       85.88035       67.18502
N         42.76748       85.79535       63.10671
C         43.60696       86.55998       62.18409
C         44.32796       87.67494       62.92971
O         45.52762       87.83734       62.75745
C         42.75948       87.18877       61.04273
C         42.14412       86.12019       60.13334
O         41.74275       88.00334       61.57196
H         41.74644       85.81792       62.97233
H         44.36022       85.89546       61.70359
H         43.44906       87.80629       60.41802
H         41.47850       88.64159       60.85874
H         41.58360       86.60984       59.30872
H         42.94475       85.49391       59.68591
H         41.44373       85.46719       60.69303
N         43.63147       88.48508       63.77483
C         44.19241       89.64487       64.46323
C         45.38212       89.25650       65.31605
O         46.44345       89.84699       65.17114
C         43.12591       90.33780       65.35777
C         41.81048       90.72189       64.64390
C         42.01608       91.60781       63.40978
C         40.67784       91.88671       62.71417
N         40.87263       92.70876       61.52124
H         42.64243       88.25330       63.92635
H         44.53470       90.38308       63.70615
H         43.57972       91.25689       65.79011
H         42.85153       89.66897       66.20284
H         41.15857       91.25023       65.37364
H         41.26180       89.80835       64.33958
H         42.66780       91.08684       62.67797
H         42.49832       92.56209       63.71346
H         39.98753       92.40604       63.41491
H         40.21263       90.91980       62.41486
H         39.94889       92.86002       61.05570
H         41.27701       93.63551       61.78763
H         41.51238       92.22343       60.85047
N         45.26724       88.24772       66.22016
C         46.34934       87.80592       67.09347
C         47.54203       87.38879       66.25226
O         48.61639       87.94801       66.42522
C         45.86704       86.65926       68.01944
C         44.70671       87.12582       68.92763
C         44.20164       86.05382       69.84538
O         44.08499       86.30602       71.15944
O         43.80982       84.98740       69.40394
H         44.36476       87.76094       66.26008
H         46.65890       88.65083       67.74953
H         46.71295       86.32746       68.65895
H         45.53191       85.79568       67.40320
H         43.84217       87.44534       68.31825
H         45.03377       87.99710       69.53557
N         47.40621       86.45713       65.27176
C         48.48711       86.10793       64.37654
H         49.33609       85.67868       64.94701
H         48.13465       85.36149       63.63265
H         48.82603       87.01266       63.82576
H         46.49365       86.01094       65.12837
Ca        42.39046       83.88669       72.67984
O         40.93045       86.06094       69.97844
H         40.19746       86.43974       70.52494
H         41.30168       86.83674       69.48751
O         40.33250       82.91741       69.38187
H         40.62050       82.49263       68.53528
H         39.42241       83.25859       69.19196

Ca 1.0



