%chk=holoCaM.loop2.water2.frame281.chk
%nprocshared=20
%mem=10GB
%nosave
#b3lyp/svp scf=(tight,noincore,xqc) Test 
#IOP(5/87=12) Density=Current Pop=(MK,readradii) iop(6/33=2) iop(6/42=6)

holoCaM.loop2.water2.frame281 

   -2  1 
C         48.76671       89.13498       35.28779
C         49.41655       88.79812       33.97289
O         49.35907       87.65132       33.55556
H         47.68215       88.90084       35.23626
H         49.23019       88.54788       36.10642
H         48.87048       90.21549       35.52850
N         50.03694       89.76995       33.25162
C         50.61343       89.56196       31.92720
C         51.78830       88.58916       31.95030
O         52.74582       88.84333       32.66826
C         51.10510       90.92062       31.38085
C         51.56614       90.86614       29.95600
O         52.08315       91.97193       29.39170
O         51.45550       89.84626       29.29651
H         50.05116       90.72381       33.64660
H         49.80895       89.19009       31.25500
H         51.94133       91.28648       32.01526
H         50.28485       91.66713       31.43114
N         51.80061       87.48216       31.14572
C         52.93276       86.56537       31.05553
C         53.44338       86.44173       29.61263
O         53.59781       85.32759       29.13306
C         52.50857       85.20270       31.62448
H         50.97799       87.28383       30.56564
H         53.77819       86.93825       31.67204
H         52.16765       85.31785       32.67523
H         51.67120       84.77782       31.02785
H         53.35984       84.48898       31.61017
N         53.73949       87.55226       28.86820
C         54.30370       87.52787       27.50664
C         54.50544       88.94705       26.96525
O         55.64136       89.27663       26.65297
C         53.54665       86.60487       26.50239
C         52.05645       86.69521       26.55949
O         51.40533       87.81465       26.22813
O         51.41551       85.74281       26.97756
H         53.57253       88.47049       29.30405
H         55.32091       87.07827       27.56611
H         53.80520       85.55449       26.75483
H         53.91535       86.76134       25.46616
N         53.48077       89.84466       26.84077
C         53.65574       91.20724       26.34692
C         52.82883       91.52987       25.11153
O         52.93154       92.65441       24.64207
H         52.54123       89.58054       27.14707
H         54.71854       91.40640       26.09350
H         53.36968       91.91380       27.15214
N         52.01619       90.61452       24.50536
C         51.30422       90.88159       23.25450
C         50.26339       92.00323       23.32933
O         49.80774       92.42728       22.27644
C         50.67324       89.58344       22.69562
C         49.60122       88.96037       23.56043
N         48.97597       87.83991       23.13882
O         49.29169       89.45157       24.63483
H         51.96579       89.66935       24.89394
H         52.07438       91.20535       22.51997
H         51.47789       88.82843       22.55705
H         50.23254       89.79894       21.69908
H         49.22428       87.40104       22.24081
H         48.23528       87.41485       23.70823
N         49.83396       92.52692       24.51265
C         48.93399       93.66883       24.61979
C         47.58459       93.34172       25.23255
O         46.85692       94.27863       25.52949
H         50.17949       92.12268       25.38711
H         48.74005       94.14192       23.63277
H         49.44325       94.42774       25.25143
N         47.13912       92.05918       25.37450
C         45.80252       91.71539       25.86343
C         45.86988       90.69368       26.99446
O         46.94832       90.23928       27.34596
C         44.96136       91.15229       24.68284
C         44.73619       92.20624       23.59555
O         45.59258       90.03467       24.11004
H         47.73436       91.28955       25.04625
H         45.27848       92.61360       26.25860
H         43.94002       90.87228       25.02670
H         45.34758       89.24689       24.66205
H         44.10680       91.78040       22.78496
H         44.20684       93.08655       24.02014
H         45.69819       92.53975       23.15400
N         44.71647       90.23715       27.56176
C         44.65371       89.13238       28.50898
C         44.29054       87.88121       27.73165
O         43.29380       87.85788       27.02307
C         43.68937       89.46016       29.69775
C         44.44061       90.37934       30.70138
C         43.18455       88.18500       30.40591
C         43.63570       90.79731       31.93299
H         43.81816       90.60081       27.21104
H         45.65155       88.93079       28.94579
H         42.78168       89.96619       29.30210
H         44.77373       91.29916       30.17501
H         45.34168       89.84378       31.07491
H         42.63700       87.52874       29.69817
H         44.01765       87.61947       30.84963
H         42.45493       88.42954       31.20193
H         42.72257       91.34916       31.63315
H         43.36006       89.92042       32.55486
H         44.26477       91.45435       32.57103
N         45.08195       86.77992       27.86501
C         44.87188       85.51052       27.19173
C         44.18045       84.54836       28.13717
O         43.82195       84.93300       29.24136
C         46.24441       84.93978       26.75450
C         46.93686       85.81038       25.75158
O         47.26315       87.07948       26.05889
O         47.22689       85.35866       24.65527
H         45.85539       86.81232       28.54383
H         44.21499       85.62922       26.30160
H         46.12105       83.93868       26.29358
H         46.90297       84.82266       27.64400
N         43.94559       83.26629       27.74952
C         43.29857       82.27002       28.58869
C         44.03209       82.04632       29.91819
O         43.36487       82.15374       30.93702
C         43.15021       80.94780       27.80868
C         42.43689       79.90079       28.62158
C         41.08552       80.06826       28.96786
C         43.12125       78.75078       29.04690
C         40.42928       79.09576       29.72646
C         42.46351       77.78496       29.81209
C         41.11817       77.95586       30.14995
H         44.23411       82.98290       26.80122
H         42.27047       82.63266       28.81661
H         44.14982       80.58524       27.50914
H         42.58395       81.11839       26.86712
H         40.54013       80.94688       28.64568
H         44.16549       78.60776       28.79682
H         39.38703       79.22693       29.98629
H         42.99828       76.90474       30.14341
H         40.60986       77.20530       30.74014
N         45.36595       81.72864       30.03080
C         46.01714       81.44775       31.30819
C         46.22874       82.68143       32.17899
O         46.80361       82.52857       33.24838
C         47.34434       80.80528       30.89100
C         47.66503       81.55421       29.61930
C         46.30240       81.58410       28.93214
H         45.44479       80.69954       31.90013
H         48.13851       80.79698       31.66836
H         47.14206       79.75000       30.59464
H         47.94601       82.59216       29.90648
H         48.48129       81.12494       29.00091
H         46.29346       82.43181       28.22268
H         46.11081       80.62218       28.41619
N         45.77546       83.91626       31.81988
C         45.93381       85.10772       32.64624
C         44.59135       85.59656       33.17114
O         44.58866       86.42454       34.07160
C         46.55262       86.23225       31.80608
C         47.83154       85.82281       31.07723
C         48.22903       86.85390       30.06937
O         47.67824       87.93958       30.00203
O         49.15810       86.53737       29.16798
H         45.29951       84.03194       30.92129
H         46.58156       84.88173       33.52129
H         46.72453       87.14472       32.41934
H         45.81862       86.46983       31.01161
H         47.62724       84.90445       30.49134
H         48.66516       85.61550       31.78113
N         43.40907       85.17164       32.63722
C         42.12903       85.63189       33.12142
H         41.31668       85.19769       32.49889
H         41.98820       85.30406       34.17170
H         42.06957       86.73840       33.05807
H         43.39279       84.52148       31.84407
Ca        49.62690       87.95209       27.51825
O         49.48803       91.27972       27.62048
H         48.86482       92.04642       27.67735
H         50.37971       91.69978       27.55495
O         48.03314       91.17528       30.07554
H         47.81300       91.90224       30.70875
H         47.46357       90.42066       30.35899

Ca 1.0



