%chk=holoCaM-CaMKII.loop2.water2.frame256.chk
%nprocshared=20
%mem=10GB
%nosave
#b3lyp/svp scf=(tight,noincore,xqc) Test 
#IOP(5/87=12) Density=Current Pop=(MK,readradii) iop(6/33=2) iop(6/42=6)

holoCaM-CaMKII.loop2.water2.frame256 

   -2  1 
C        104.68447       82.57567       43.13801
C        104.78872       81.54796       42.04543
O        104.95635       80.37691       42.34606
H        103.82212       82.32995       43.79429
H        105.61339       82.58630       43.74324
H        104.51976       83.59391       42.72415
N        104.66910       81.91918       40.74290
C        104.64774       80.97709       39.62936
C        105.95528       80.21071       39.47631
O        106.99569       80.83231       39.31190
C        104.33451       81.74077       38.33006
C        104.21339       80.81071       37.16569
O        104.93367       80.95334       36.19111
O        103.31651       79.80756       37.20094
H        104.52487       82.92093       40.53963
H        103.81337       80.26315       39.79894
H        105.12574       82.49741       38.13149
H        103.36687       82.27240       38.44502
N        105.94919       78.84329       39.46233
C        107.13306       78.02097       39.23765
C        107.01552       77.11580       38.00598
O        108.02093       76.50632       37.66705
C        107.38444       77.15487       40.47740
H        105.05745       78.36278       39.61213
H        108.01892       78.67388       39.08258
H        107.50912       77.79673       41.37484
H        106.52542       76.46901       40.64949
H        108.30473       76.54469       40.35251
N        105.84384       76.92725       37.31780
C        105.72404       76.01036       36.17517
C        105.11155       76.64783       34.92454
O        105.03196       75.96609       33.91136
C        104.93827       74.74391       36.58936
C        103.51332       74.95576       37.03638
O        102.77605       73.88755       37.39310
O        103.01453       76.06764       37.08692
H        104.99112       77.39080       37.65261
H        106.73330       75.65435       35.87297
H        105.48546       74.25079       37.42141
H        104.92675       74.03717       35.73084
N        104.67059       77.93707       34.90193
C        104.12949       78.58951       33.71624
C        102.79943       78.05009       33.21015
O        102.35192       78.54816       32.18650
H        104.77873       78.51027       35.74082
H        104.88266       78.51834       32.90178
H        103.97551       79.66786       33.93775
N        102.10533       77.05201       33.83393
C        100.86693       76.49582       33.28160
C         99.71034       77.49480       33.18998
O         98.74607       77.18771       32.50255
C        100.42127       75.23011       34.05609
C        100.11368       75.45622       35.51888
N         99.66503       74.43543       36.28291
O        100.27562       76.55376       36.02433
H        102.49290       76.63501       34.68766
H        101.10021       76.17292       32.24244
H        101.22615       74.46656       33.99286
H         99.51495       74.81376       33.56549
H         99.52334       73.49834       35.87975
H         99.45316       74.58538       37.27992
N         99.71118       78.67961       33.86565
C         98.65187       79.67509       33.75309
C         97.84672       79.84749       35.02848
O         97.07506       80.79414       35.08958
H        100.49560       78.89818       34.49285
H         97.93216       79.43440       32.94015
H         99.13236       80.64083       33.48616
N         97.90240       78.94089       36.04963
C         97.09336       79.02786       37.26229
C         98.00610       78.89795       38.51814
O         98.29260       77.55023       38.71656
C         95.99645       77.91640       37.22406
C         94.96954       78.15610       36.11989
O         96.57901       76.65186       37.00195
H         98.49127       78.11032       35.93993
H         96.58912       80.01835       37.31774
H         95.42811       77.92852       38.18266
H         96.42121       76.09384       37.80744
H         94.21017       77.34460       36.14402
H         94.45443       79.12613       36.27844
H         95.45298       78.15223       35.12050
N         97.36580       79.45696       39.72708
C         98.13933       79.25792       40.97635
C         97.96389       77.83396       41.52632
O         96.84690       77.45277       41.84837
C         97.69861       80.31628       42.04409
C         97.97994       81.75403       41.53022
C         98.40914       80.07134       43.39007
C         97.59113       82.86321       42.51512
H         96.38258       79.12364       39.84818
H         99.21762       79.43713       40.76830
H         96.60448       80.21215       42.22317
H         97.40473       81.92076       40.59465
H         99.05940       81.86760       41.30074
H         98.06343       80.77289       44.17334
H         98.14627       79.07530       43.78175
H         99.51002       80.15283       43.27774
H         98.21153       82.82559       43.43440
H         97.77503       83.85336       42.04847
H         96.51808       82.78740       42.78867
N         99.04426       77.00823       41.68585
C         98.97294       75.68456       42.31586
C         98.92636       75.82767       43.82885
O         99.04734       76.93469       44.32522
C        100.20860       74.83116       41.93638
C        100.29206       74.61717       40.45634
O        101.28667       75.20278       39.76418
O         99.39673       74.03232       39.86590
H         99.96457       77.35056       41.38517
H         98.05749       75.16006       41.96157
H        100.17614       73.83643       42.42692
H        101.12491       75.35858       42.27559
N         98.74554       74.74713       44.63848
C         98.66973       74.87175       46.09112
C         99.99332       75.35601       46.70234
O         99.94507       76.38639       47.35850
C         98.14140       73.57241       46.73748
C         98.03574       73.69542       48.23863
C         98.81654       72.87423       49.06973
C         97.16253       74.63093       48.82249
C         98.72723       72.98957       50.45962
C         97.07474       74.74065       50.21313
C         97.85676       73.92121       51.03104
H         98.60330       73.82196       44.20460
H         97.89280       75.63759       46.31671
H         98.77258       72.71199       46.47502
H         97.13547       73.34126       46.32494
H         99.49927       72.14970       48.64314
H         96.54771       75.27281       48.20441
H         99.33406       72.35640       51.09349
H         96.39992       75.46136       50.65655
H         97.78818       74.00799       52.10743
N        101.20439       74.71767       46.55195
C        102.46336       75.21396       47.11174
C        102.71135       76.67912       46.82727
O        103.10593       77.41582       47.72039
C        103.53229       74.38827       46.37911
C        102.83243       73.07034       46.20306
C        101.43822       73.51597       45.77184
H        102.48736       75.00570       48.20512
H        103.69497       74.78541       45.34998
H        104.51583       74.34860       46.89482
H        103.32447       72.35503       45.51054
H        102.75938       72.60075       47.21154
H        101.39136       73.77811       44.69272
H        100.76925       72.67529       45.99897
N        102.48068       77.15646       45.57616
C        102.73256       78.52627       45.15214
C        101.94948       79.49572       46.01861
O        102.55359       80.36000       46.63851
C        102.36421       78.69514       43.65873
C        103.17754       77.74852       42.74465
C        102.79644       77.86475       41.29974
O        103.27839       77.08958       40.49141
O        101.90992       78.78630       40.88326
H        102.08664       76.49194       44.89657
H        103.81898       78.74683       45.25894
H        102.55053       79.74816       43.35509
H        101.28288       78.47819       43.52092
H        103.00043       76.69289       43.01944
H        104.26497       77.94280       42.85379
N        100.59956       79.38427       46.13927
C         99.81959       80.25098       46.99373
H         98.74898       79.95608       46.95097
H        100.16762       80.15796       48.04490
H         99.91509       81.30450       46.65841
H        100.10845       78.64319       45.62790
Ca       100.48059       77.03165       38.77176
O        101.04550       81.16150       39.52189
H        100.97818       82.07862       39.15677
H        101.25038       81.29216       40.48136
O        100.65097       80.21430       36.67538
H         99.99904       80.87688       37.01236
H        101.16184       80.70198       35.98094

Ca 1.0



