%chk=holoCaM.loop2.water2.frame143.chk
%nprocshared=20
%mem=10GB
%nosave
#b3lyp/svp scf=(tight,noincore,xqc) Test 
#IOP(5/87=12) Density=Current Pop=(MK,readradii) iop(6/33=2) iop(6/42=6)

holoCaM.loop2.water2.frame143 

   -2  1 
C         11.98968       78.81112       -9.93861
C         12.51990       77.41512      -10.09680
O         13.38169       77.00273       -9.33531
H         10.89806       78.76416       -9.73117
H         12.48487       79.33611       -9.09510
H         12.15076       79.38693      -10.87360
N         12.00481       76.61428      -11.06542
C         12.35922       75.21037      -11.23080
C         13.81491       75.00214      -11.63438
O         14.23355       75.51067      -12.66460
C         11.42901       74.57763      -12.28182
C         11.68839       73.11302      -12.42029
O         11.99414       72.63944      -13.50253
O         11.59922       72.32049      -11.33910
H         11.26777       77.01243      -11.66957
H         12.16145       74.69344      -10.26491
H         11.55588       75.08235      -13.26477
H         10.37506       74.70758      -11.95630
N         14.61682       74.19484      -10.87928
C         15.99171       73.83639      -11.21646
C         16.18308       72.31701      -11.36187
O         17.30943       71.90328      -11.60285
C         16.90632       74.36062      -10.10158
H         14.22803       73.79747      -10.01406
H         16.30077       74.31448      -12.17082
H         16.64296       73.88994       -9.12851
H         17.97173       74.14003      -10.32605
H         16.79316       75.46127      -10.00245
N         15.15795       71.42682      -11.18149
C         15.35439       69.97333      -11.07726
C         14.23060       69.12247      -11.69065
O         14.35299       67.90565      -11.65699
C         15.55022       69.60546       -9.58423
C         14.41056       70.02507       -8.68143
O         13.32369       70.63812       -9.19041
O         14.49942       69.85450       -7.47667
H         14.24104       71.80799      -10.93757
H         16.28976       69.68443      -11.60689
H         16.46653       70.12435       -9.22666
H         15.72437       68.51184       -9.48230
N         13.12006       69.66524      -12.26660
C         12.04798       68.88535      -12.87705
C         11.20537       68.03216      -11.93073
O         10.31860       67.35631      -12.43361
H         13.04913       70.68051      -12.34293
H         12.48846       68.23208      -13.66092
H         11.34725       69.58719      -13.38080
N         11.40150       67.98438      -10.57912
C         10.63943       67.09769       -9.68812
C          9.16493       67.49699       -9.46652
O          8.49476       66.81162       -8.70628
C         11.37370       66.93940       -8.33355
C         11.43318       68.17840       -7.48434
N         12.02628       68.13487       -6.27215
O         10.94143       69.22095       -7.87522
H         12.17261       68.53028      -10.17585
H         10.65599       66.07693      -10.13184
H         12.41349       66.59523       -8.52789
H         10.86225       66.15010       -7.74154
H         12.44916       67.26371       -5.92206
H         12.05435       68.97283       -5.67863
N          8.57898       68.55166      -10.10535
C          7.16584       68.90086       -9.97786
C          6.75550       69.65030       -8.71206
O          5.57990       69.97674       -8.62314
H          9.11706       69.06625      -10.80962
H          6.54798       67.98396      -10.10129
H          6.90765       69.57991      -10.81880
N          7.62230       69.97429       -7.70779
C          7.22915       70.70793       -6.49522
C          8.07765       71.96376       -6.28312
O          8.98194       72.22578       -7.06321
C          7.35238       69.76738       -5.26430
C          6.30687       68.65273       -5.31253
O          8.63442       69.19617       -5.19356
H          8.59769       69.66809       -7.78402
H          6.17352       71.05295       -6.55855
H          7.13705       70.31396       -4.31968
H          9.25127       69.90376       -4.87155
H          6.43768       68.01656       -6.21163
H          6.39494       68.01702       -4.40570
H          5.28603       69.09424       -5.32452
N          7.85736       72.75654       -5.18809
C          8.70865       73.87293       -4.78401
C          9.57130       73.39220       -3.62792
O          9.05285       73.05810       -2.57076
C          7.85331       75.13552       -4.41650
C          7.36219       75.82797       -5.71478
C          8.63639       76.13498       -3.53134
C          6.40538       77.00303       -5.48033
H          7.10523       72.49144       -4.53486
H          9.40365       74.15330       -5.60415
H          6.98025       74.80240       -3.81133
H          6.83205       75.08736       -6.34970
H          8.24372       76.20315       -6.28223
H          9.54418       76.50768       -4.04819
H          8.00381       76.99169       -3.22694
H          8.93458       75.66133       -2.57349
H          5.49416       76.65769       -4.94918
H          6.88030       77.82137       -4.90242
H          6.10623       77.43450       -6.45877
N         10.92230       73.31993       -3.79304
C         11.85850       72.89737       -2.75671
C         12.08832       74.02536       -1.76359
O         11.51030       75.08657       -1.92267
C         13.21115       72.51093       -3.40072
C         13.08371       71.35291       -4.34838
O         12.38618       71.44040       -5.34351
O         13.75913       70.21281       -4.11044
H         11.30758       73.56652       -4.71455
H         11.46207       71.99736       -2.23619
H         13.92443       72.20089       -2.61246
H         13.64091       73.38214       -3.94176
N         12.93377       73.86536       -0.70711
C         13.25553       74.93741        0.22978
C         14.05502       76.07848       -0.41693
O         13.59494       77.20538       -0.30095
C         13.97055       74.37359        1.47548
C         14.25333       75.44195        2.51130
C         13.21381       76.23773        3.03308
C         15.56523       75.64957        2.97049
C         13.48718       77.22717        3.98091
C         15.83128       76.63289        3.92885
C         14.79425       77.42361        4.43018
H         13.34977       72.93475       -0.55040
H         12.29245       75.35056        0.60054
H         14.90751       73.85840        1.18096
H         13.30646       73.61177        1.93861
H         12.19128       76.10417        2.70648
H         16.38196       75.04731        2.59298
H         12.68367       77.84087        4.36797
H         16.84275       76.78272        4.28272
H         15.00247       78.18738        5.16808
N         15.23800       75.91394       -1.10031
C         15.99040       77.02233       -1.68524
C         15.18415       77.73555       -2.75695
O         15.20954       78.95811       -2.79261
C         17.27857       76.36212       -2.19725
C         16.83742       74.95805       -2.53092
C         15.88808       74.64483       -1.37330
H         16.29500       77.77756       -0.92609
H         17.81849       76.91510       -2.99641
H         17.96973       76.25640       -1.32973
H         16.26209       75.00468       -3.47881
H         17.65432       74.21862       -2.67211
H         15.20483       73.85380       -1.71970
H         16.44433       74.32690       -0.46657
N         14.37293       77.04468       -3.60142
C         13.48880       77.68070       -4.57330
C         12.53251       78.62294       -3.86068
O         12.41464       79.77136       -4.26293
C         12.71127       76.60873       -5.36600
C         13.67490       75.72713       -6.18593
C         12.97313       74.68077       -6.99260
O         11.63122       74.58905       -7.00327
O         13.63495       73.89432       -7.64684
H         14.33018       76.02252       -3.49978
H         14.08478       78.26517       -5.31000
H         12.00935       77.11348       -6.06650
H         12.11807       75.97623       -4.66840
H         14.38339       75.19949       -5.51730
H         14.26363       76.36604       -6.87789
N         11.87197       78.20951       -2.74574
C         10.99248       79.04345       -1.95534
H         10.00139       78.55173       -1.86873
H         11.42033       79.15663       -0.93557
H         10.85769       80.05216       -2.39545
H         12.03992       77.26094       -2.40605
Ca        11.75029       71.77261       -8.04473
O          9.17871       71.54025      -10.09331
H          9.99086       70.97389      -10.08067
H          8.88245       71.53606      -11.03830
O          9.74636       74.20206       -9.12116
H          9.35551       74.76371       -8.40627
H          9.10536       74.27406       -9.87107

Ca 1.0



