%chk=holoCaM-CaMKII.loop1.water2.frame351.chk
%nprocshared=20
%mem=10GB
%nosave
#b3lyp/svp scf=(tight,noincore,xqc) Test 
#IOP(5/87=12) Density=Current Pop=(MK,readradii) iop(6/33=2) iop(6/42=6)

holoCaM-CaMKII.loop1.water2.frame351 

   0  1 
C         32.96162       66.35773       48.31478
C         33.12947       66.95872       49.66974
O         32.42312       66.56636       50.58693
H         32.69096       67.15397       47.59236
H         33.91455       65.87851       48.00719
H         32.16010       65.58872       48.33018
N         34.08570       67.90082       49.88634
C         34.31469       68.44255       51.20989
C         33.26166       69.51000       51.54198
O         33.28227       70.57815       50.94718
C         35.75619       68.96957       51.31357
C         36.01795       69.28010       52.73015
O         35.88252       68.29653       53.63118
O         36.22104       70.42397       53.07713
H         34.72031       68.15441       49.11311
H         34.24046       67.58773       51.92364
H         35.89632       69.86325       50.66701
H         36.48221       68.18603       51.00490
N         32.26385       69.24224       52.43299
C         31.13166       70.13687       52.69858
C         31.44902       71.35590       53.56267
O         30.76396       72.35647       53.39873
C         29.97387       69.37854       53.38204
C         29.38178       68.15889       52.63639
C         28.76763       68.45437       51.25462
C         29.78056       68.37340       50.09742
N         29.14654       68.69041       48.82043
H         32.23952       68.29455       52.82624
H         30.72945       70.52116       51.74100
H         29.13833       70.09543       53.54715
H         30.31169       69.03278       54.38341
H         28.55252       67.81337       53.29247
H         30.09725       67.31737       52.55737
H         28.23270       69.42788       51.28367
H         28.01700       67.66135       51.04313
H         30.16902       67.33519       50.05401
H         30.64312       69.04636       50.23160
H         28.80129       69.67748       48.83325
H         29.85342       68.58901       48.05609
H         28.35185       68.03628       48.63696
N         32.36783       71.31993       54.57102
C         32.58596       72.43690       55.50555
C         33.94376       73.10916       55.31823
O         34.25204       74.02848       56.06465
C         32.29289       72.03370       56.98159
C         33.06767       70.88422       57.56503
O         32.90556       70.57236       58.73293
O         33.86084       70.13386       56.80183
H         32.93073       70.46618       54.66946
H         31.86187       73.25589       55.30210
H         31.21696       71.76946       57.06707
H         32.47050       72.92266       57.62512
N         34.75156       72.79243       54.27010
C         35.95837       73.52569       53.92733
C         37.06100       73.41007       54.94832
O         37.58983       74.43261       55.36134
H         34.46097       72.05551       53.61499
H         35.71092       74.59465       53.74136
H         36.35732       73.11240       52.97591
N         37.50459       72.18595       55.34690
C         38.68689       71.98106       56.17289
C         39.76472       71.18057       55.42515
O         40.85602       71.05989       55.96317
C         38.28038       71.35551       57.52912
C         37.68435       69.97906       57.45384
O         37.64005       69.37415       56.40194
O         37.20433       69.39695       58.56778
H         36.98825       71.35980       55.03483
H         39.14655       72.96540       56.40825
H         37.52513       72.02575       57.99415
H         39.16033       71.30339       58.20344
N         39.54709       70.61279       54.19266
C         40.57792       69.93482       53.41289
C         40.44463       68.41827       53.39702
O         41.27595       67.77901       52.76890
H         38.62003       70.66062       53.75578
H         41.58490       70.15688       53.82512
H         40.55723       70.33807       52.37663
N         39.50365       67.77082       54.14252
C         39.48699       66.32575       54.37637
C         38.08296       65.76261       54.23680
O         37.14854       66.36640       54.73783
C         40.02411       66.03085       55.79604
C         41.51153       66.39302       55.93248
O         39.26199       66.67651       56.78550
H         38.84357       68.33525       54.68216
H         40.16177       65.78943       53.67195
H         39.95166       64.93527       55.97090
H         39.50593       67.63829       56.78370
H         41.67608       67.48104       55.78139
H         41.87070       66.11928       56.94598
H         42.11045       65.83441       55.18174
N         37.87214       64.54792       53.65511
C         36.54091       63.98701       53.43070
C         36.23542       62.94544       54.50457
O         37.07570       62.09404       54.76074
C         36.45197       63.32847       52.01721
C         37.08275       64.19201       50.89155
C         34.97284       63.02455       51.68238
C         37.30221       63.38425       49.60558
H         38.69076       63.98757       53.37068
H         35.78106       64.80024       53.47109
H         37.03903       62.38390       52.06225
H         38.09652       64.52964       51.18863
H         36.46697       65.09634       50.69468
H         34.39409       63.97458       51.62357
H         34.86058       62.49391       50.71805
H         34.50707       62.38705       52.45623
H         37.96834       62.51780       49.81763
H         36.35474       63.00722       49.17536
H         37.79926       64.01798       48.84261
N         35.01266       62.91003       55.11143
C         34.61719       61.89733       56.09564
C         33.64600       60.91152       55.45927
O         33.26520       61.09097       54.31594
C         33.91533       62.55001       57.33149
C         34.74789       63.58043       58.08930
O         32.70028       63.13406       56.96574
H         34.30176       63.57555       54.78464
H         35.50577       61.32564       56.43935
H         33.66878       61.75268       58.06355
H         32.90553       63.94900       56.44715
H         35.66432       63.11915       58.50236
H         35.00724       64.42575       57.42102
H         34.13413       63.98146       58.92857
N         33.17315       59.85194       56.16977
C         32.07249       59.00278       55.70886
C         30.79613       59.83138       55.59379
O         30.08697       59.71600       54.60471
C         31.82629       57.83167       56.69391
C         32.99111       56.83620       56.68956
O         31.62422       58.32144       57.99445
H         33.56607       59.68684       57.10826
H         32.30837       58.55042       54.71847
H         30.91532       57.28664       56.34929
H         31.17363       57.60274       58.50907
H         33.93690       57.31981       57.00939
H         32.76799       55.99867       57.38417
H         33.12582       56.41360       55.67089
N         30.47889       60.71938       56.57806
C         29.28884       61.56970       56.61116
C         29.14503       62.35561       55.31248
O         28.07129       62.36039       54.72782
C         29.37485       62.56104       57.81224
C         29.13125       61.96624       59.22255
C         30.08125       60.84288       59.66271
C         29.79091       60.39207       61.10152
N         30.66419       59.28355       61.49018
H         31.16994       60.83069       57.32997
H         28.37017       60.95644       56.73547
H         28.58481       63.33370       57.68704
H         30.34773       63.09475       57.79224
H         28.08936       61.58405       59.27089
H         29.22429       62.80397       59.94970
H         31.13596       61.19168       59.60461
H         29.92785       59.96853       58.99945
H         28.73106       60.06316       61.18120
H         29.94822       61.24530       61.79828
H         30.43800       58.99551       62.46964
H         30.51035       58.46516       60.85725
H         31.66661       59.57876       61.44652
N         30.19381       63.05949       54.82206
C         30.15585       63.89499       53.62817
C         30.03741       63.02983       52.38492
O         29.09712       63.21105       51.62450
C         31.40994       64.80329       53.61575
C         31.36495       65.75198       54.84151
C         32.60544       66.57710       55.01389
O         32.51992       67.78750       55.11978
O         33.80777       65.98932       55.14553
H         31.07327       62.99836       55.33814
H         29.27992       64.58045       53.67653
H         31.44208       65.40853       52.68812
H         32.32329       64.17075       53.64272
H         31.23657       65.17779       55.77564
H         30.47689       66.41449       54.76513
N         30.94226       62.04262       52.13936
C         30.87643       61.13609       51.01020
H         30.02848       61.36268       50.33135
H         31.82213       61.19582       50.43170
H         30.75708       60.09607       51.38411
H         31.70802       61.90398       52.80304
Ca        35.20252       68.81937       55.65900
O         33.56501       67.05423       58.29466
H         32.93799       66.50616       58.82931
H         33.03550       67.84578       58.02716
O         36.42024       66.56582       57.99391
H         36.98376       65.87702       57.56191
H         36.54159       66.41073       58.96404

Ca 1.0



