%chk=holoCaM.loop4.water3.frame460.chk
%nprocshared=20
%mem=10GB
%nosave
#b3lyp/svp scf=(tight,noincore,xqc) Test 
#IOP(5/87=12) Density=Current Pop=(MK,readradii) iop(6/33=2) iop(6/42=6)

holoCaM.loop4.water3.frame460 

   -3  1 
C         35.77130       53.61616       50.10907
C         35.84365       52.61037       51.21601
O         34.80947       52.31635       51.79794
H         35.40915       54.58642       50.50931
H         36.76053       53.76628       49.63058
H         35.05593       53.25330       49.34043
N         37.03160       52.04652       51.58298
C         37.10721       51.03483       52.62744
C         38.52597       50.87444       53.14942
O         39.41332       50.50768       52.39127
C         36.55254       49.70044       52.09370
C         36.59395       48.64668       53.15202
O         37.17352       47.59154       52.95049
O         36.01461       48.88110       54.34251
H         37.89865       52.35888       51.11907
H         36.47925       51.37252       53.48101
H         37.13301       49.36566       51.20455
H         35.49799       49.83543       51.77898
N         38.79335       51.14801       54.46249
C         40.11343       51.04056       55.07207
C         40.07368       50.10918       56.28791
O         40.66226       50.43906       57.30747
C         40.65459       52.47239       55.41559
C         39.71662       53.23659       56.40173
C         40.85984       53.26766       54.11269
C         40.22302       54.61864       56.81720
H         38.02262       51.46803       55.05978
H         40.82018       50.57125       54.35344
H         41.65486       52.35861       55.88956
H         39.58932       52.64667       57.33194
H         38.71602       53.37688       55.95292
H         41.34761       54.24309       54.30964
H         41.52900       52.70731       53.42609
H         39.89130       53.44974       53.60000
H         40.27075       55.30836       55.95040
H         39.51399       55.06188       57.54921
H         41.22305       54.54045       57.29140
N         39.41299       48.91143       56.23915
C         39.37375       47.96609       57.37036
C         38.60326       46.64639       57.11279
O         38.78956       45.73064       57.90247
C         38.81212       48.60735       58.66860
C         37.39493       49.07089       58.51331
O         36.88065       49.30490       57.29144
O         36.68091       49.17306       59.49813
H         38.95318       48.68280       55.35195
H         40.42831       47.67079       57.56349
H         39.41924       49.44445       59.06430
H         38.84066       47.82828       59.46256
N         37.73320       46.45514       56.07646
C         37.09805       45.17748       55.77492
C         36.13402       44.66999       56.83312
O         36.35233       43.57940       57.34084
H         37.53001       47.21591       55.42770
H         37.89415       44.42200       55.59527
H         36.52292       45.27558       54.82856
N         35.00974       45.37165       57.16278
C         33.96955       44.87005       58.06979
C         32.60388       44.75573       57.38339
O         31.63726       44.42007       58.05303
C         33.88481       45.74396       59.34552
C         33.40316       47.16387       59.17826
O         33.06884       47.66641       57.97756
O         33.35343       47.89021       60.15755
H         34.87349       46.28803       56.72102
H         34.23353       43.85058       58.42491
H         34.89484       45.76838       59.81005
H         33.19525       45.25024       60.06403
N         32.44577       45.02562       56.05552
C         31.16533       45.03712       55.36498
C         30.25105       46.09155       55.94113
O         29.09351       45.79629       56.19435
H         33.26680       45.25312       55.48619
H         30.68923       44.03321       55.39053
H         31.35125       45.30099       54.30052
N         30.71865       47.35554       56.13759
C         29.96804       48.48256       56.70812
C         30.72093       49.79901       56.47944
O         31.82831       49.79308       55.95298
C         29.69223       48.32343       58.23945
C         28.63585       47.27437       58.61934
C         28.29786       47.32437       60.08536
N         29.22012       46.99281       61.01760
O         27.17136       47.64507       60.43462
H         31.68588       47.51483       55.82230
H         29.00993       48.59519       56.15428
H         29.27965       49.28056       58.61886
H         30.64225       48.14202       58.78278
H         28.98278       46.24729       58.42042
H         27.71499       47.48890       58.03141
H         30.16665       46.69593       60.73917
H         28.97945       47.01238       62.01956
N         30.14557       50.98832       56.81482
C         30.74808       52.28162       56.52115
C         31.00005       53.04030       57.81420
O         30.06926       53.24449       58.58308
C         29.82121       53.08497       55.56416
C         30.47304       54.41274       55.14234
C         29.48939       52.27434       54.29925
H         29.20845       50.99156       57.24766
H         31.71601       52.15038       55.98893
H         28.86281       53.30853       56.08364
H         30.66915       55.05160       56.02440
H         31.43133       54.22641       54.60998
H         29.79866       54.97798       54.46460
H         30.41483       52.01457       53.74170
H         28.95409       51.33730       54.56034
H         28.82108       52.86084       53.63298
N         32.23570       53.55364       58.07170
C         32.54782       54.42326       59.20356
C         32.60203       55.85165       58.69209
O         32.49465       56.04527       57.49497
C         33.88636       53.94938       59.82694
C         34.43610       54.80101       60.94438
N         33.73947       54.99618       62.08604
O         35.54233       55.30597       60.82208
H         32.97046       53.42735       57.35920
H         31.73398       54.38477       59.95978
H         34.65295       53.90863       59.01908
H         33.74847       52.92144       60.22051
H         32.80980       54.57407       62.21534
H         34.13329       55.57904       62.84000
N         32.67087       56.91694       59.53486
C         32.69033       58.29694       59.04631
C         33.98820       58.64443       58.32571
O         33.96550       59.53322       57.48549
C         32.32272       59.29428       60.16531
C         33.14010       59.13226       61.42766
C         32.51851       58.62992       62.58646
C         34.50415       59.45998       61.47297
C         33.24716       58.44614       63.76135
C         35.23068       59.28158       62.65610
C         34.60439       58.77031       63.80236
O         35.29378       58.58714       64.94607
H         32.63792       56.73709       60.54598
H         31.87491       58.39738       58.29256
H         31.25791       59.08475       60.41143
H         32.36304       60.34310       59.79988
H         31.46844       58.36390       62.57870
H         35.00556       59.85668       60.60055
H         32.75413       58.04824       64.63947
H         36.28026       59.53841       62.68298
H         36.23497       58.79857       65.01947
N         35.15176       57.97498       58.57761
C         36.39367       58.21394       57.83633
C         36.32895       57.65609       56.40774
O         37.30136       57.79535       55.67895
C         37.59361       57.55913       58.57112
C         37.83315       58.09187       60.00183
C         38.24602       59.54178       60.08683
O         38.48424       60.08584       61.29491
O         38.39488       60.22656       59.08739
H         35.15442       57.27854       59.33296
H         36.57305       59.30648       57.77832
H         38.52927       57.71286       57.98920
H         37.41093       56.46330       58.63341
H         38.64929       57.49341       60.45983
H         36.92441       57.93932       60.61741
N         35.22369       57.00407       55.94808
C         35.08483       56.38238       54.63997
C         34.00106       57.10640       53.86118
O         34.27512       57.58817       52.77116
C         34.71622       54.89266       54.82504
C         35.79256       54.13365       55.61888
C         35.42222       52.70668       55.91509
O         36.24293       51.96294       56.67652
O         34.38048       52.21968       55.50719
H         34.42028       56.90947       56.56396
H         36.03518       56.44028       54.06327
H         34.58035       54.41069       53.83203
H         33.75680       54.82059       55.38128
H         35.94862       54.63227       56.59879
H         36.74473       54.15211       55.04920
N         32.74624       57.24571       54.37407
C         31.68944       57.95377       53.69029
H         30.77672       57.96568       54.32592
H         31.99727       59.00353       53.50000
H         31.45060       57.44641       52.73346
H         32.52540       56.85379       55.29358
Ca        34.75500       48.74206       57.01277
O         33.82574       51.00450       58.47903
H         34.72405       51.01834       58.89506
H         33.28347       50.43058       59.07506
O         33.81251       47.32751       54.30037
H         33.28877       47.02789       53.51743
H         34.61480       46.74781       54.29690
O         33.46382       50.06506       53.49462
H         33.22130       51.02338       53.48795
H         32.67282       49.60666       53.11623

Ca 1.0



