%chk=holoCaM-CaMKII.loop2.water2.frame241.chk
%nprocshared=20
%mem=10GB
%nosave
#b3lyp/svp scf=(tight,noincore,xqc) Test 
#IOP(5/87=12) Density=Current Pop=(MK,readradii) iop(6/33=2) iop(6/42=6)

holoCaM-CaMKII.loop2.water2.frame241 

   -2  1 
C         83.56111       36.67323       35.00715
C         84.72638       37.55546       35.34481
O         85.04574       37.70453       36.51596
H         82.79101       37.25217       34.45843
H         83.91166       35.83431       34.36744
H         83.10965       36.24396       35.92730
N         85.44495       38.14222       34.34772
C         86.66583       38.89443       34.60374
C         86.39108       40.19480       35.34421
O         85.45669       40.89462       34.97843
C         87.41745       39.21078       33.28892
C         88.87554       39.51258       33.54955
O         89.56917       39.97999       32.66294
O         89.44371       38.97134       34.65150
H         85.15840       37.96749       33.37175
H         87.30826       38.21986       35.20553
H         86.91041       40.03763       32.74396
H         87.41379       38.31908       32.62652
N         87.21340       40.61044       36.35068
C         87.01794       41.84731       37.10073
C         88.16265       42.84697       36.93547
O         88.05785       43.91647       37.52195
C         86.85356       41.49972       38.58458
H         88.01741       40.02202       36.59571
H         86.09006       42.35987       36.76585
H         86.00402       40.79813       38.72138
H         87.77704       41.02255       38.97599
H         86.65148       42.41406       39.18252
N         89.27640       42.60143       36.17699
C         90.39847       43.54850       36.13102
C         91.24125       43.51615       34.84898
O         92.16254       44.31755       34.76256
C         91.28089       43.37550       37.39111
C         91.92000       42.01924       37.52540
O         91.72190       41.14555       36.70044
O         92.71594       41.76181       38.57976
H         89.37048       41.68397       35.72681
H         89.98895       44.58328       36.15674
H         90.66057       43.54882       38.29567
H         92.08512       44.14242       37.38227
N         90.98719       42.68140       33.79946
C         91.73638       42.72783       32.55032
C         93.19252       42.30021       32.63835
O         93.85948       42.39032       31.61705
H         90.18861       42.04285       33.83361
H         91.68723       43.76423       32.15071
H         91.24616       42.06093       31.80789
N         93.76747       41.82067       33.78166
C         95.17753       41.42911       33.84689
C         95.49354       40.32056       32.84889
O         96.47844       40.43100       32.13256
C         95.61793       41.06842       35.28450
C         95.06869       39.77373       35.82700
N         95.90570       38.79552       36.24368
O         93.86480       39.61027       35.91517
H         93.19749       41.74068       34.63262
H         95.78618       42.32472       33.58601
H         95.32327       41.89800       35.96416
H         96.72814       41.01420       35.29675
H         96.92823       38.91204       36.19516
H         95.52951       37.92090       36.63319
N         94.62269       39.28562       32.67377
C         94.75430       38.27636       31.63120
C         94.50575       36.85702       32.11070
O         94.47945       35.97343       31.26590
H         93.76186       39.28611       33.23331
H         95.74058       38.33335       31.12161
H         93.97256       38.48918       30.87188
N         94.31009       36.54911       33.42580
C         94.03399       35.19714       33.90815
C         92.80416       35.18524       34.79429
O         92.72204       36.01896       35.68193
C         95.22899       34.66839       34.73928
C         96.48408       34.50032       33.88570
O         95.52326       35.52671       35.81219
H         94.39067       37.29234       34.13357
H         93.88817       34.47717       33.07229
H         94.97638       33.64880       35.12133
H         95.01767       35.20072       36.60227
H         96.28652       33.79398       33.05125
H         96.81227       35.47555       33.46950
H         97.30374       34.08551       34.51005
N         91.88883       34.17162       34.72116
C         90.88036       33.96116       35.76613
C         91.62110       33.83523       37.08492
O         92.53534       33.02643       37.17884
C         90.01450       32.68751       35.49748
C         89.14839       32.89091       34.22599
C         89.11337       32.36916       36.71660
C         88.35005       31.65172       33.81246
H         91.99646       33.46377       33.97931
H         90.19177       34.83347       35.81776
H         90.69788       31.82225       35.34569
H         89.80135       33.15325       33.36841
H         88.43925       33.73208       34.38815
H         88.41165       33.20601       36.92038
H         88.53494       31.43721       36.56562
H         89.72117       32.18774       37.62673
H         87.78988       31.87142       32.87941
H         89.03522       30.79864       33.62435
H         87.60409       31.36483       34.58027
N         91.27160       34.61519       38.14485
C         91.99987       34.61323       39.40692
C         91.18230       33.85824       40.44119
O         90.08983       33.41646       40.10769
C         92.30074       36.06980       39.85987
C         92.70036       36.99470       38.73002
O         91.74254       37.32546       37.83708
O         93.80619       37.50720       38.68055
H         90.43684       35.21447       38.06593
H         92.96722       34.08032       39.27817
H         93.07075       36.04458       40.66130
H         91.37835       36.52430       40.27954
N         91.64020       33.62756       41.70637
C         90.81668       32.91715       42.68081
C         89.55386       33.71375       43.00312
O         88.49146       33.11409       42.94719
C         91.57814       32.50971       43.96275
C         90.67709       31.68273       44.86021
C         90.28635       32.16821       46.12003
C         90.19635       30.42894       44.43272
C         89.42492       31.41957       46.92938
C         89.33817       29.68400       45.24634
C         88.95051       30.17985       46.49261
H         92.58565       33.94427       41.96978
H         90.51638       31.95197       42.21415
H         91.94346       33.39414       44.50918
H         92.47134       31.90405       43.69718
H         90.63467       33.13157       46.47006
H         90.48070       30.02636       43.46885
H         89.12007       31.80317       47.89415
H         88.97015       28.72355       44.90795
H         88.28140       29.60372       47.11879
N         89.55051       35.05124       43.32275
C         88.33497       35.81699       43.59489
C         87.29962       35.85968       42.46964
O         86.25665       36.46262       42.68245
C         88.85190       37.24576       43.82436
C         90.22274       36.99931       44.40275
C         90.72823       35.87722       43.50574
H         87.88192       35.39254       44.51823
H         89.02451       37.73991       42.83824
H         88.18050       37.89292       44.42772
H         90.88772       37.88805       44.44482
H         90.08932       36.59725       45.43352
H         91.05409       36.26207       42.51972
H         91.56816       35.39142       44.02506
N         87.52189       35.29243       41.24584
C         86.59618       35.38427       40.12092
C         86.07945       34.01963       39.67741
O         85.22127       33.98939       38.80608
C         87.32624       36.03232       38.93054
C         87.95400       37.38992       39.28401
C         88.77664       37.94563       38.16069
O         89.45982       39.08984       38.35168
O         88.86640       37.36048       37.09224
H         88.41191       34.82336       41.06512
H         85.71489       36.00230       40.39933
H         86.62862       36.15370       38.07334
H         88.14182       35.34290       38.61789
H         88.64333       37.26831       40.14554
H         87.16000       38.11720       39.55668
N         86.56033       32.85332       40.19882
C         86.10699       31.54029       39.79026
H         85.30074       31.58491       39.02968
H         86.96325       30.97514       39.36462
H         85.72554       30.99454       40.67852
H         87.29992       32.86929       40.90534
Ca        91.26407       38.49884       35.93540
O         89.51626       36.16201       33.62266
H         89.25684       36.50253       32.73056
H         88.71227       36.29528       34.18458
O         91.60687       37.89968       32.61229
H         91.64792       38.63960       33.26695
H         91.62458       38.35041       31.73165

Ca 1.0



