%chk=holoCaM.loop4.water3.frame159.chk
%nprocshared=20
%mem=10GB
%nosave
#b3lyp/svp scf=(tight,noincore,xqc) Test 
#IOP(5/87=12) Density=Current Pop=(MK,readradii) iop(6/33=2) iop(6/42=6)

holoCaM.loop4.water3.frame159 

   -3  1 
C         85.61992      105.75234       86.17198
C         84.43069      104.95678       86.61239
O         84.58017      104.16708       87.53556
H         86.41770      105.07498       85.80354
H         85.35213      106.47823       85.37782
H         86.00785      106.31848       87.04746
N         83.21003      105.10414       86.01602
C         82.02024      104.45026       86.54541
C         80.84204      104.47784       85.57837
O         80.43162      105.55420       85.15764
C         81.62816      105.14310       87.86686
C         80.44199      104.49045       88.49742
O         80.49016      103.31122       88.80584
O         79.31979      105.20224       88.71633
H         83.12054      105.72998       85.19995
H         82.26227      103.38939       86.75319
H         81.40036      106.21426       87.67030
H         82.46485      105.10026       88.59383
N         80.19795      103.31391       85.25358
C         78.98901      103.22964       84.44485
C         77.77781      102.70460       85.23640
O         76.70104      102.70561       84.67155
C         79.19393      102.29384       83.20156
C         79.41647      100.80573       83.61389
C         80.33338      102.80343       82.30340
C         79.30500       99.81839       82.45309
H         80.56620      102.43885       85.64006
H         78.71753      104.24647       84.08200
H         78.25368      102.33745       82.60834
H         78.63421      100.49117       84.33113
H         80.39437      100.67612       84.11172
H         80.13532      103.85001       81.99278
H         81.30635      102.76523       82.83641
H         80.41623      102.19471       81.37980
H         78.29969       99.89340       81.98605
H         80.08334       99.99152       81.68586
H         79.42529       98.78526       82.84485
N         77.90131      102.13897       86.48684
C         76.79675      101.39685       87.12054
C         76.44837      101.81843       88.54265
O         75.43385      101.34094       89.04533
C         77.13393       99.89284       87.11014
C         78.36247       99.50064       87.90477
O         79.11026      100.40846       88.57953
O         78.67659       98.32495       87.93673
H         78.81948      102.11509       86.93154
H         75.87082      101.53033       86.52300
H         77.28261       99.57216       86.05703
H         76.26448       99.32492       87.50861
N         77.21960      102.65998       89.27128
C         76.89629      103.08954       90.62198
C         76.88729      102.00704       91.69811
O         76.59605      102.37572       92.82793
H         78.05961      103.05779       88.84069
H         75.89775      103.57842       90.60356
H         77.63578      103.85616       90.93541
N         77.15964      100.68117       91.47543
C         77.04295       99.69112       92.55438
C         78.06661       99.88343       93.67593
O         77.89398       99.27476       94.72310
C         77.05266       98.23384       92.02687
C         78.33461       97.76911       91.39763
O         79.29326       98.50944       91.30430
O         78.42760       96.50824       90.93571
H         77.38279      100.35633       90.52667
H         76.03336       99.83542       93.00016
H         76.24259       98.12062       91.27549
H         76.83292       97.54932       92.87443
N         79.14751      100.70390       93.53470
C         80.08890      101.00408       94.60425
C         81.50811      100.55959       94.30858
O         82.38488      100.92772       95.07751
H         79.30840      101.16636       92.63226
H         79.78368      100.55100       95.57243
H         80.08711      102.10707       94.74066
N         81.81494       99.73456       93.26294
C         83.16619       99.26347       92.97838
C         83.52693       99.57015       91.49944
O         82.80512       98.74036       90.63311
C         83.26160       97.74673       93.28606
C         83.01914       97.43415       94.77127
C         83.16349       95.95815       95.04545
N         82.33134       95.05980       94.46796
O         84.03949       95.56920       95.80365
H         81.05921       99.37825       92.66983
H         83.90435       99.79252       93.62170
H         84.27319       97.36878       93.03555
H         82.52381       97.19763       92.66243
H         82.00260       97.75720       95.08048
H         83.76537       97.99329       95.37877
H         81.57880       95.36622       93.83476
H         82.43569       94.05224       94.65946
N         84.97812       99.45457       91.26237
C         85.41086       99.57747       89.85564
C         85.56152       98.19332       89.21089
O         86.23726       97.34889       89.78271
C         86.75322      100.35561       89.79372
C         87.15511      100.62976       88.33246
C         86.65801      101.70084       90.53666
H         85.44427       98.65808       91.74996
H         84.67891      100.19093       89.29909
H         87.54972       99.75402       90.28455
H         86.37908      101.24563       87.82599
H         88.11882      101.17977       88.29302
H         87.28015       99.68418       87.76672
H         87.63099      102.23481       90.48981
H         85.88038      102.34981       90.08320
H         86.41530      101.54657       91.60923
N         85.00655       97.91431       87.99353
C         85.10760       96.60992       87.32585
C         86.00418       96.69639       86.09418
O         86.43865       97.78453       85.74309
C         83.67048       96.15713       86.98266
C         83.51692       94.82950       86.28866
N         83.92059       93.68411       86.88227
O         82.98933       94.78475       85.18715
H         84.50313       98.66777       87.50312
H         85.58002       95.86843       88.00538
H         83.19775       96.94504       86.35196
H         83.11732       96.07728       87.93303
H         84.35050       93.69905       87.81773
H         83.79539       92.77946       86.40438
N         86.37401       95.56225       85.41913
C         87.26302       95.57800       84.25582
C         86.64618       96.33619       83.09509
O         87.37236       96.81396       82.23489
C         87.65707       94.14041       83.83250
C         86.53657       93.37440       83.15681
C         86.24641       93.61339       81.80003
C         85.78799       92.41178       83.85297
C         85.22580       92.91392       81.15565
C         84.75798       91.71664       83.20674
C         84.47480       91.96353       81.85793
O         83.48540       91.28122       81.24662
H         86.05339       94.65204       85.77366
H         88.19193       96.09795       84.58066
H         88.00429       93.60458       84.74331
H         88.52357       94.16147       83.13626
H         86.81884       94.33668       81.23354
H         85.99183       92.20698       84.89602
H         85.02294       93.11114       80.11011
H         84.17987       90.98323       83.75408
H         83.26652       91.41984       80.31355
N         85.29116       96.44204       82.99614
C         84.60239       97.22027       81.97976
C         84.99131       98.67380       82.15855
O         85.44776       99.31341       81.22210
C         83.06859       97.03480       82.17306
C         82.17939       97.79799       81.17891
C         82.25788       97.30199       79.76005
O         81.56921       97.83424       78.90475
O         83.03881       96.25811       79.42008
H         84.71329       95.96200       83.69964
H         84.88814       96.85664       80.97074
H         82.79108       97.37827       83.19421
H         82.81328       95.95322       82.11786
H         82.42246       98.88122       81.21661
H         81.12558       97.67015       81.50528
N         84.83481       99.24002       83.38472
C         85.12181      100.63304       83.70733
C         86.61653      100.94396       83.70862
O         86.95959      102.10607       83.87707
C         84.54594      100.94480       85.10704
C         83.02378      100.69556       85.16290
C         82.47532      100.74103       86.55596
O         83.25749      101.06072       87.59776
O         81.30736      100.45344       86.75293
H         84.46541       98.63138       84.12877
H         84.60968      101.28181       82.96209
H         84.75047      101.99908       85.39737
H         85.05730      100.27722       85.83396
H         82.76611       99.68752       84.78774
H         82.51312      101.43916       84.51838
N         87.56176       99.96919       83.56469
C         88.98897      100.21687       83.59301
H         89.44033       99.87359       82.63859
H         89.23351      101.28978       83.73468
H         89.44197       99.64047       84.42763
H         87.27802       98.99158       83.45173
Ca        81.01309       99.88815       89.73953
O         81.30422       97.25039       88.81418
H         80.43272       97.12747       89.26047
H         81.10662       97.70366       87.95600
O         80.74907      102.81149       91.50572
H         79.93896      103.37901       91.50091
H         81.19105      103.01246       92.36738
O         83.24400      102.46368       90.28242
H         83.42777      102.85183       89.39299
H         83.44360      103.19884       90.91370

Ca 1.0



