%chk=holoCaM-CaMKII.loop3.water2.frame284.chk
%nprocshared=20
%mem=10GB
%nosave
#b3lyp/svp scf=(tight,noincore,xqc) Test 
#IOP(5/87=12) Density=Current Pop=(MK,readradii) iop(6/33=2) iop(6/42=6)

holoCaM-CaMKII.loop3.water2.frame284 

   0  1 
C         47.52612       19.62187       67.65061
C         48.27200       18.37742       67.96809
O         49.44899       18.42773       68.30027
H         46.60717       19.68067       68.26958
H         48.15943       20.51726       67.80629
H         47.24126       19.55272       66.57904
N         47.62754       17.19397       67.84758
C         48.31376       15.92974       67.92609
C         49.01783       15.66822       66.60372
O         48.39256       15.71382       65.55309
C         47.32265       14.83594       68.33158
C         47.98425       13.51006       68.51561
O         49.15110       13.32910       68.22305
O         47.27959       12.50447       69.02826
H         46.62411       17.19608       67.60481
H         49.06218       15.96639       68.74729
H         46.49076       14.74657       67.60877
H         46.87953       15.12261       69.30844
N         50.34944       15.39264       66.61537
C         51.19142       15.18644       65.44033
C         50.69999       14.05001       64.54946
O         50.73503       14.20406       63.33745
C         52.64233       14.96429       65.91970
C         53.67633       14.96835       64.79065
C         55.09924       14.96841       65.37562
C         56.20275       14.90484       64.30327
N         56.50985       13.53443       63.87841
H         50.80311       15.34527       67.54033
H         51.18710       16.12451       64.84393
H         52.71719       14.01583       66.48354
H         52.89481       15.79984       66.61062
H         53.55344       15.90910       64.20703
H         53.50414       14.10012       64.12524
H         55.25148       14.15473       66.11727
H         55.20473       15.93538       65.91643
H         57.12824       15.31978       64.75442
H         55.93659       15.54429       63.43182
H         56.85911       12.98589       64.69927
H         55.68544       13.05231       63.45590
H         57.28298       13.56878       63.17377
N         50.20573       12.89703       65.07836
C         49.66303       11.79528       64.27931
C         48.17354       11.55636       64.54630
O         47.61046       10.64291       63.95669
C         50.52798       10.53792       64.47950
C         50.68996       10.03657       65.88173
O         50.03725       10.58353       66.92293
O         51.44082        9.09635       66.07193
H         50.19227       12.81106       66.10046
H         49.73615       12.02487       63.19419
H         51.54396       10.78222       64.10151
H         50.12172        9.70066       63.87284
N         47.45869       12.37401       65.37457
C         46.03228       12.24957       65.63023
C         45.66154       10.98218       66.35479
O         44.51214       10.57281       66.26369
H         47.92959       13.15969       65.82928
H         45.45867       12.34505       64.68318
H         45.71003       13.08580       66.28250
N         46.56590       10.32639       67.13650
C         46.24167        9.09564       67.84691
C         45.40686        9.35221       69.10900
O         45.10239        8.40328       69.81839
C         47.53502        8.28014       68.09603
C         48.24635        8.59255       69.38016
N         48.58101        7.59211       70.22803
O         48.51816        9.74188       69.66265
H         47.52583       10.69141       67.19322
H         45.65901        8.46174       67.14590
H         48.22422        8.41205       67.22979
H         47.27151        7.20465       68.12236
H         48.37847        6.61104       69.98635
H         49.05977        7.78815       71.11761
N         44.99188       10.61592       69.43765
C         44.20702       10.95063       70.61149
C         45.06434       11.21082       71.82423
O         44.51996       11.41054       72.90100
H         45.21822       11.40459       68.82733
H         43.42666       10.18357       70.78343
H         43.69331       11.91841       70.41775
N         46.41740       11.26026       71.71537
C         47.31443       11.60247       72.79224
C         48.24098       12.73177       72.27376
O         49.10758       12.27836       71.28543
C         47.99475       10.30256       73.27591
C         46.96685        9.36468       73.89264
C         46.58870        9.54019       75.23434
C         46.38159        8.31539       73.15478
C         45.67903        8.66806       75.83955
C         45.46320        7.44682       73.76131
C         45.12737        7.60976       75.11376
O         44.29569        6.74759       75.73297
H         46.85557       11.06909       70.81382
H         46.75548       12.02822       73.64711
H         48.76880       10.51881       74.04115
H         48.51003        9.78653       72.43707
H         47.01912       10.34105       75.82031
H         46.63261        8.16431       72.11425
H         45.41814        8.80265       76.88198
H         45.02271        6.64106       73.18489
H         43.98149        5.93924       75.30381
N         48.95393       13.42477       73.34548
C         49.89454       14.49229       72.91975
C         51.01687       14.50483       73.93537
O         50.74951       14.49292       75.12877
C         49.26767       15.92399       72.80500
C         48.12563       15.95474       71.75945
C         50.37141       16.95339       72.44658
C         47.56919       17.34970       71.43720
H         48.23644       13.83616       73.98620
H         50.33343       14.26562       71.92016
H         48.85308       16.21457       73.79272
H         47.28706       15.33367       72.13462
H         48.49479       15.51289       70.81916
H         49.96876       17.98491       72.47810
H         51.19181       16.94271       73.19257
H         50.80927       16.75553       71.44357
H         48.32401       17.96736       70.90441
H         46.69454       17.25811       70.75777
H         47.25146       17.87266       72.36175
N         52.30801       14.54244       73.51028
C         53.47086       14.48482       74.38584
C         54.36003       15.70376       74.24630
O         54.07532       16.57316       73.44512
C         54.27717       13.24360       74.00118
O         54.65429       13.34752       72.65590
H         52.47478       14.59259       72.49981
H         53.15760       14.42286       75.45050
H         53.63755       12.34782       74.15410
H         55.18637       13.15527       74.62969
H         54.99176       12.46072       72.37798
N         55.47221       15.81321       75.02798
C         56.41490       16.92775       74.99109
C         57.14189       17.03911       73.66115
O         57.44496       18.14862       73.24482
C         57.43123       16.77176       76.12778
H         55.63506       15.06981       75.72358
H         55.85571       17.86956       75.17664
H         56.88567       16.62883       77.08637
H         58.08417       15.88797       75.95894
H         58.06028       17.68150       76.22046
N         57.49057       15.92973       72.95464
C         58.11283       15.99739       71.63844
C         57.10590       16.49653       70.61540
O         57.44390       17.34001       69.79701
C         58.66470       14.62017       71.25369
H         57.27430       15.00020       73.34893
H         58.99836       16.67014       71.65903
H         57.86978       13.84672       71.21529
H         59.18310       14.67166       70.27179
H         59.41764       14.31851       72.01609
N         55.83734       16.00148       70.61026
C         54.82237       16.39900       69.64082
C         54.37456       17.84918       69.81621
O         53.90215       18.42790       68.84815
C         53.61948       15.43407       69.69931
C         54.06499       13.98425       69.39464
C         52.92038       13.04035       69.27411
O         52.02573       12.92421       70.24848
O         52.76379       12.38976       68.25544
H         55.59631       15.29482       71.31818
H         55.25869       16.29998       68.62282
H         52.85505       15.74637       68.96008
H         53.15901       15.49645       70.70198
H         54.74405       13.60456       70.17955
H         54.61070       13.95945       68.43356
N         54.44762       18.48663       71.02023
C         54.04954       19.86414       71.23511
H         53.12114       19.90458       71.84609
H         54.85568       20.38925       71.79021
H         53.88080       20.40315       70.28106
H         54.79407       17.98161       71.83689
Ca        50.44479       11.50553       69.68289
O         51.25269        9.82790       71.59249
H         51.31277       10.00760       72.56211
H         51.30657        8.84515       71.49895
O         52.47821        9.41067       68.97281
H         53.32691        8.94615       69.17138
H         52.57681        9.67379       68.02851

Ca 1.0



