%chk=holoCaM-CaMKII.loop4.water1.frame385.chk
%nprocshared=20
%mem=10GB
%nosave
#b3lyp/svp scf=(tight,noincore,xqc) Test 
#IOP(5/87=12) Density=Current Pop=(MK,readradii) iop(6/33=2) iop(6/42=6)

holoCaM-CaMKII.loop4.water1.frame385 

   -3  1 
C         70.19890      -14.05396       76.72169
C         71.38127      -13.15640       76.90399
O         71.82038      -12.57476       75.92146
H         69.35538      -13.46361       76.30581
H         70.46158      -14.86430       76.00969
H         69.88146      -14.50655       77.68315
N         71.96350      -13.00244       78.13007
C         73.10550      -12.13044       78.34748
C         74.33338      -12.94203       78.69333
O         74.30422      -13.74645       79.61423
C         72.79846      -11.06426       79.39764
C         73.93485      -10.09176       79.42670
O         74.42146       -9.74056       80.48675
O         74.45046       -9.64656       78.25897
H         71.59232      -13.52855       78.93596
H         73.31420      -11.57792       77.40590
H         72.59396      -11.49107       80.40458
H         71.89533      -10.50871       79.07658
N         75.44887      -12.79062       77.93020
C         76.57398      -13.70810       77.95672
C         77.59673      -13.34778       79.03750
O         78.18073      -14.27351       79.58378
C         77.18917      -13.83124       76.51818
C         76.07569      -14.20151       75.48222
C         78.31696      -14.87879       76.48969
C         76.55083      -14.28793       74.03036
H         75.41893      -12.09277       77.17342
H         76.18463      -14.72830       78.18167
H         77.62374      -12.84976       76.23176
H         75.28084      -13.42939       75.48405
H         75.60012      -15.16675       75.76010
H         77.91986      -15.88291       76.75177
H         78.78926      -14.92862       75.48840
H         79.12551      -14.60985       77.19775
H         77.03040      -13.33798       73.72050
H         77.25864      -15.12678       73.88310
H         75.67565      -14.47083       73.36966
N         77.89813      -12.05277       79.37953
C         78.98549      -11.71014       80.31312
C         78.53565      -11.03885       81.61716
O         79.39471      -10.73619       82.43436
C         80.06205      -10.87750       79.58420
C         79.64308       -9.48922       79.17749
O         80.44427       -8.77272       78.59969
O         78.41623       -9.01119       79.46027
H         77.37576      -11.28772       78.92804
H         79.50343      -12.63956       80.63561
H         80.38397      -11.43674       78.67816
H         80.94737      -10.77847       80.24997
N         77.22385      -10.84832       81.92490
C         76.76644      -10.38235       83.23051
C         76.96023       -8.90111       83.50785
O         77.50477       -8.54451       84.54227
H         76.50485      -11.15855       81.25651
H         77.21726      -11.00462       84.03435
H         75.66745      -10.54292       83.27586
N         76.41353       -7.99156       82.66061
C         76.21707       -6.56333       82.94486
C         74.71745       -6.21383       82.86047
O         74.38066       -5.04358       82.97541
C         77.09348       -5.64520       82.03621
C         76.92512       -5.85200       80.56157
O         77.57786       -5.21158       79.75378
O         76.12230       -6.83220       80.15715
H         76.01700       -8.37577       81.79731
H         76.53912       -6.32285       83.98213
H         78.16141       -5.83817       82.27349
H         76.87847       -4.58157       82.28020
N         73.75613       -7.18519       82.73929
C         72.32245       -6.93071       82.77346
C         71.71258       -6.41782       81.48146
O         70.50056       -6.25065       81.47282
H         74.02623       -8.17722       82.74647
H         72.08162       -6.25444       83.62235
H         71.81133       -7.89828       82.97453
N         72.44261       -6.16181       80.35644
C         71.83885       -5.70997       79.09426
C         72.20621       -6.64569       77.95686
O         73.05966       -7.48924       78.16008
C         72.22173       -4.23244       78.83287
C         73.73715       -3.94129       78.77107
C         74.36490       -4.36516       77.47616
N         74.09419       -3.68273       76.34199
O         75.15649       -5.29338       77.45182
H         73.46251       -6.29425       80.39162
H         70.73052       -5.74528       79.17633
H         71.82204       -3.66413       79.70026
H         71.71292       -3.84488       77.92348
H         74.25287       -4.40621       79.63401
H         73.90894       -2.84819       78.86296
H         73.47365       -2.86051       76.35458
H         74.53812       -3.95003       75.45768
N         71.56890       -6.60468       76.74802
C         71.89635       -7.52141       75.65276
C         72.20233       -6.71882       74.39636
O         71.30312       -6.09281       73.85133
C         70.73660       -8.53835       75.41364
C         71.06964       -9.54033       74.29344
C         70.43286       -9.33910       76.68799
H         70.79945       -5.93107       76.61319
H         72.79462       -8.12248       75.91617
H         69.81753       -7.98216       75.12707
H         71.97067      -10.13415       74.55479
H         70.22454      -10.24549       74.13825
H         71.24350       -9.01982       73.33452
H         71.32704       -9.92267       76.98391
H         70.13993       -8.66996       77.52267
H         69.59452      -10.04751       76.51195
N         73.46329       -6.69604       73.88036
C         73.82013       -6.02210       72.63006
C         73.21256       -6.74551       71.44255
O         72.60434       -7.78720       71.61833
C         75.35742       -6.04447       72.45734
C         76.03879       -5.21265       73.50703
N         76.77378       -5.78974       74.48436
O         75.92203       -3.99691       73.47285
H         74.20450       -7.18061       74.40282
H         73.46267       -4.96893       72.65345
H         75.67191       -5.64505       71.47014
H         75.69788       -7.10194       72.51225
H         76.87095       -6.81389       74.53809
H         77.22531       -5.20902       75.20619
N         73.37626       -6.26295       70.17985
C         72.99568       -7.02713       68.99678
C         73.89203       -8.25034       68.89827
O         73.38628       -9.35715       68.77350
C         73.08470       -6.14386       67.73299
C         72.60810       -6.88061       66.49895
C         71.33671       -6.61380       65.96129
C         73.42195       -7.84498       65.87805
C         70.88344       -7.30993       64.83627
C         72.97041       -8.53305       64.74892
C         71.69651       -8.27067       64.22653
O         71.24502       -8.93319       63.14254
H         73.83203       -5.34565       70.05533
H         71.92746       -7.33440       69.07889
H         74.10425       -5.73428       67.56448
H         72.41128       -5.27744       67.91803
H         70.68706       -5.87992       66.42185
H         74.41036       -8.06186       66.26084
H         69.89696       -7.10420       64.44011
H         73.61134       -9.27085       64.28287
H         71.77634       -9.60559       62.69257
N         75.24824       -8.10782       68.98565
C         76.20907       -9.21182       68.90193
C         76.03038      -10.30396       69.96028
O         76.72228      -11.30831       69.86394
C         77.65593       -8.66341       68.94399
C         78.01633       -7.99741       70.28745
C         79.39673       -7.41170       70.24784
O         80.33823       -7.83993       71.10963
O         79.66609       -6.52755       69.44984
H         75.61047       -7.14850       69.08818
H         76.06134       -9.69432       67.91024
H         77.76702       -7.92399       68.12038
H         78.37289       -9.49226       68.75148
H         77.95784       -8.74806       71.10470
H         77.31234       -7.17631       70.52183
N         75.10736      -10.21117       70.95886
C         74.80780      -11.29165       71.88738
C         73.49061      -11.91716       71.46591
O         73.45688      -13.11610       71.22492
C         74.77220      -10.77109       73.33736
C         76.13739      -10.21636       73.77471
C         76.12745       -9.80034       75.21606
O         76.99862      -10.34568       76.08471
O         75.34520       -8.95262       75.60586
H         74.53155       -9.36756       71.03830
H         75.57812      -12.09382       71.83944
H         74.49267      -11.61285       74.00804
H         74.00559       -9.97235       73.43462
H         76.40209       -9.33796       73.15080
H         76.91961      -10.99102       73.63649
N         72.37874      -11.15478       71.28034
C         71.13981      -11.69573       70.76794
H         70.39797      -10.87825       70.63720
H         71.31574      -12.16319       69.77437
H         70.73032      -12.44905       71.47076
H         72.41946      -10.14745       71.46075
Ca        75.84515       -7.91927       78.27456
O         78.60228       -6.97591       76.77838
H         78.49711       -7.95344       76.88850
H         79.10987       -6.87883       75.93391

Ca 1.0



