%chk=holoCaM-CaMKII.loop4.water2.frame282.chk
%nprocshared=20
%mem=10GB
%nosave
#b3lyp/svp scf=(tight,noincore,xqc) Test 
#IOP(5/87=12) Density=Current Pop=(MK,readradii) iop(6/33=2) iop(6/42=6)

holoCaM-CaMKII.loop4.water2.frame282 

   -3  1 
C         50.56715       25.12951       91.32856
C         50.23817       24.13668       92.40452
O         49.29454       23.37480       92.25381
H         51.59287       24.93215       90.94936
H         49.85424       25.05122       90.48077
H         50.52773       26.15949       91.74084
N         50.99897       24.09578       93.53108
C         50.81561       23.13693       94.61185
C         50.47933       23.88128       95.89449
O         51.19595       24.80641       96.25158
C         52.11770       22.34422       94.77746
C         52.03052       21.26472       95.81404
O         53.04077       20.66042       96.11271
O         50.86807       20.94726       96.41434
H         51.77264       24.77391       93.61931
H         50.00355       22.41444       94.36781
H         52.92929       23.04767       95.06327
H         52.39409       21.86417       93.81276
N         49.39579       23.51696       96.63840
C         48.92598       24.25134       97.81057
C         49.06060       23.44853       99.11411
O         49.04788       24.08350      100.15964
C         47.45398       24.72557       97.54647
C         47.39479       25.56210       96.23480
C         46.86621       25.51271       98.73384
C         45.99212       26.03229       95.84118
H         48.85415       22.70988       96.32131
H         49.56329       25.15202       97.95126
H         46.81814       23.82338       97.40659
H         47.76110       24.93888       95.39057
H         48.05613       26.45092       96.32147
H         45.81016       25.78947       98.54490
H         46.83106       24.88879       99.64818
H         47.45833       26.43062       98.92916
H         46.03993       26.54782       94.85856
H         45.30179       25.16976       95.75570
H         45.58591       26.75784       96.57358
N         49.17026       22.08407       99.16123
C         49.23728       21.33590      100.42612
C         50.49848       20.46645      100.54638
O         50.61599       19.74245      101.52521
C         47.89886       20.58947      100.65388
C         47.56480       19.55186       99.63163
O         48.54189       18.97870       98.92370
O         46.42708       19.12237       99.54793
H         49.14286       21.54445       98.28594
H         49.29121       22.03573      101.28803
H         47.10218       21.36512      100.60568
H         47.84991       20.13252      101.66581
N         51.53411       20.58186       99.66100
C         52.84484       19.97120       99.85377
C         52.93397       18.49701       99.52430
O         53.35619       17.72706      100.37542
H         51.45940       21.26139       98.89311
H         53.19959       20.17316      100.88957
H         53.56163       20.47042       99.16749
N         52.61936       18.04395       98.27663
C         52.81963       16.65922       97.83895
C         53.39163       16.55460       96.42262
O         53.44077       15.45302       95.89316
C         51.52165       15.86350       98.04360
C         50.29851       16.37399       97.34781
O         50.33080       17.28876       96.36323
O         49.21162       15.96336       97.72142
H         52.19161       18.71009       97.61801
H         53.55351       16.14738       98.50103
H         51.30867       15.92723       99.13406
H         51.65993       14.78834       97.79981
N         53.89284       17.64190       95.76489
C         54.45985       17.59344       94.42413
C         53.45236       17.31636       93.32361
O         53.88188       17.21731       92.18125
H         53.94927       18.53808       96.25335
H         55.26079       16.82383       94.40126
H         54.92668       18.57647       94.19353
N         52.11626       17.18034       93.56544
C         51.13180       16.85483       92.53920
C         50.07021       17.94640       92.45522
O         50.04005       18.81749       93.31891
C         50.54558       15.47133       92.89921
C         49.70845       14.80313       91.80330
C         49.30358       13.41916       92.24260
N         49.76058       12.32295       91.59268
O         48.56151       13.28612       93.20465
H         51.77291       17.28295       94.52385
H         51.63732       16.78690       91.55087
H         49.96265       15.54894       93.84461
H         51.40922       14.79328       93.08637
H         50.32778       14.74157       90.88152
H         48.78711       15.37585       91.58182
H         50.39978       12.40995       90.78914
H         49.48686       11.37933       91.90457
N         49.20123       18.00002       91.40587
C         48.19219       19.04195       91.23844
C         46.81734       18.39767       91.10416
O         46.65152       17.50178       90.28507
C         48.52995       19.92672       90.00640
C         47.55628       21.11672       89.90703
C         49.96665       20.47334       90.09638
H         49.29317       17.30423       90.64952
H         48.19021       19.72649       92.11649
H         48.45456       19.31901       89.07783
H         46.51032       20.76933       89.79188
H         47.61854       21.74967       90.81920
H         47.80346       21.74867       89.02771
H         50.10588       21.07379       91.02064
H         50.70407       19.64342       90.09944
H         50.19254       21.11328       89.21688
N         45.77061       18.85035       91.84743
C         44.41299       18.31293       91.80009
C         43.50807       19.28454       91.04728
O         43.97466       20.34561       90.65913
C         43.96245       18.09472       93.26896
C         42.58583       17.51627       93.46764
N         42.27606       16.28142       93.01240
O         41.74438       18.16433       94.07236
H         45.92983       19.66488       92.45356
H         44.39881       17.35020       91.24364
H         44.00670       19.07867       93.78673
H         44.68405       17.41656       93.77132
H         42.97511       15.71201       92.51543
H         41.33339       15.89267       93.16546
N         42.20852       18.97742       90.76716
C         41.29306       19.88873       90.07951
C         41.09852       21.15616       90.88742
O         41.15545       22.24043       90.32720
C         39.91335       19.22845       89.87184
C         38.97160       20.16436       89.14271
C         39.24444       20.56527       87.82261
C         37.82664       20.66381       89.78621
C         38.38913       21.45121       87.16102
C         36.97493       21.55319       89.12369
C         37.25423       21.95015       87.80793
O         36.44343       22.80958       87.15832
H         41.84932       18.05482       91.05123
H         41.70842       20.13868       89.07784
H         39.49568       18.95845       90.86743
H         40.01895       18.29096       89.28494
H         40.12040       20.19496       87.30524
H         37.59947       20.37726       90.80540
H         38.61175       21.75350       86.14525
H         36.10124       21.93634       89.63557
H         35.65100       23.18166       87.57110
N         40.86483       21.07366       92.22517
C         40.70007       22.22805       93.09794
C         41.89529       23.15680       92.95928
O         41.71324       24.34210       92.71715
C         40.57057       21.72852       94.56346
C         40.25410       22.80686       95.61415
C         38.84989       23.33800       95.50122
O         37.97736       23.13512       96.50786
O         38.49205       23.96085       94.51546
H         40.83966       20.13434       92.64744
H         39.77293       22.76150       92.80468
H         41.52890       21.24063       94.84958
H         39.77650       20.95213       94.62917
H         40.99037       23.63697       95.56983
H         40.34694       22.32742       96.61363
N         43.15741       22.66146       93.09121
C         44.36095       23.48933       93.03180
C         44.56738       24.09657       91.64685
O         45.27178       25.09001       91.53596
C         45.61408       22.67681       93.44782
C         45.43053       22.01450       94.83439
C         46.59144       21.17756       95.27262
O         47.05231       21.30040       96.52809
O         47.02776       20.29020       94.55917
H         43.24572       21.65022       93.25573
H         44.22903       24.31306       93.76631
H         46.50389       23.34403       93.46323
H         45.78946       21.88949       92.68595
H         44.57308       21.32079       94.82368
H         45.22434       22.78762       95.60270
N         44.00719       23.53279       90.54082
C         44.15177       24.07288       89.20745
H         43.69554       25.08341       89.15763
H         45.22351       24.12301       88.92442
H         43.62531       23.41559       88.47960
H         43.46467       22.67310       90.63881
Ca        48.72554       18.77392       96.71190
O         45.26730       18.58945       96.66667
H         44.56552       19.04985       96.14363
H         44.93991       18.63981       97.59800
O         47.27957       16.79280       94.83955
H         47.47299       16.08460       95.50381
H         46.90884       16.30719       94.06087

Ca 1.0



