%chk=holoCaM.loop4.water3.frame151.chk
%nprocshared=20
%mem=10GB
%nosave
#b3lyp/svp scf=(tight,noincore,xqc) Test 
#IOP(5/87=12) Density=Current Pop=(MK,readradii) iop(6/33=2) iop(6/42=6)

holoCaM.loop4.water3.frame151 

   -3  1 
C          1.43059       88.78060        4.03910
C          1.44821       88.62081        5.53010
O          2.22139       87.81202        6.01754
H          1.73477       89.81751        3.78004
H          2.15562       88.08230        3.56473
H          0.41840       88.57763        3.63763
N          0.63653       89.38277        6.32321
C          0.71094       89.38147        7.78752
C         -0.36871       90.28722        8.38165
O         -0.39440       91.46823        8.06263
C          2.11474       89.88444        8.19556
C          2.34133       90.14659        9.65292
O          2.30362       89.19528       10.59719
O          2.63542       91.27731       10.00292
H         -0.02338       90.02550        5.85721
H          0.56168       88.34965        8.16992
H          2.29132       90.84491        7.66221
H          2.89664       89.17159        7.87038
N         -1.27398       89.79151        9.28160
C         -2.31025       90.59591        9.93563
C         -2.11655       90.67839       11.45764
O         -2.85747       91.42325       12.08477
C         -3.74190       90.04387        9.61359
C         -4.00284       88.65705       10.27069
C         -3.97010       89.99270        8.09213
C         -5.44262       88.15660       10.14244
H         -1.21562       88.79796        9.52087
H         -2.25433       91.63957        9.55500
H         -4.47482       90.76199       10.04521
H         -3.79668       88.71865       11.36046
H         -3.33578       87.89749        9.82920
H         -5.01440       89.70850        7.85171
H         -3.78672       90.98952        7.64106
H         -3.28946       89.25495        7.61708
H         -5.54185       87.19054       10.68348
H         -6.14685       88.88599       10.59541
H         -5.71976       87.97657        9.08543
N         -1.20285       89.90546       12.12420
C         -1.06835       89.87194       13.58543
C          0.35309       90.15222       14.08065
O          0.54500       90.18144       15.28897
C         -1.59138       88.51894       14.14502
C         -0.94222       87.24975       13.63351
O         -0.02006       87.26458       12.66026
O         -1.30806       86.17414       14.07517
H         -0.61828       89.26448       11.57989
H         -1.71021       90.65800       14.04211
H         -2.67530       88.44292       13.91049
H         -1.49266       88.53751       15.25257
N          1.39448       90.37858       13.23032
C          2.75587       90.67335       13.66730
C          3.45699       89.57331       14.45974
O          4.55525       89.83641       14.92870
H          1.20724       90.41049       12.22623
H          2.72002       91.58544       14.30145
H          3.38358       90.90556       12.77959
N          2.89962       88.34941       14.69382
C          3.48641       87.37414       15.61722
C          4.87755       86.85924       15.24887
O          5.60987       86.50145       16.16136
C          2.52035       86.19756       15.89727
C          2.09294       85.38916       14.69825
O          2.42959       85.69520       13.56722
O          1.28640       84.32708       14.87915
H          1.98405       88.13454       14.27923
H          3.60432       87.89442       16.59447
H          1.59510       86.60209       16.36056
H          2.99951       85.51486       16.63203
N          5.29014       86.72253       13.96009
C          6.59569       86.18598       13.58320
C          6.48047       84.87562       12.82774
O          7.47740       84.43151       12.27658
H          4.64610       86.98811       13.20413
H          7.25998       86.01530       14.45805
H          7.08946       86.93749       12.93049
N          5.30088       84.19545       12.76880
C          5.07605       82.98710       11.98764
C          3.99790       83.27115       10.95256
O          3.46050       84.37138       10.93684
C          4.65978       81.83069       12.92667
C          5.80102       81.44461       13.88310
C          5.43070       80.27844       14.76539
N          4.44462       80.38526       15.68647
O          6.04372       79.22654       14.65836
H          4.49544       84.55096       13.29226
H          5.99443       82.69124       11.43447
H          4.40888       80.93300       12.32187
H          3.75342       82.12447       13.50210
H          6.08513       82.30412       14.52720
H          6.68396       81.16237       13.26819
H          3.92824       81.26789       15.80940
H          4.20793       79.58447       16.29187
N          3.64512       82.32636       10.03420
C          2.62009       82.55018        9.01893
C          1.47696       81.57437        9.22426
O          1.70552       80.38134        9.36803
C          3.21351       82.52484        7.58315
C          3.78726       81.16505        7.16380
C          2.16010       82.98532        6.55797
H          4.12283       81.41330       10.05515
H          2.20782       83.57619        9.12649
H          4.04071       83.26934        7.55523
H          4.58973       80.84269        7.85672
H          2.99370       80.39009        7.13134
H          4.22986       81.24578        6.14764
H          1.29951       82.28485        6.52313
H          1.78130       83.99474        6.82221
H          2.60573       83.05079        5.54338
N          0.20099       82.04190        9.22806
C         -0.98450       81.23305        9.46350
C         -1.77635       81.11982        8.17010
O         -1.37043       81.68414        7.16676
C         -1.76813       81.93313       10.60396
C         -3.07131       81.30903       11.02634
N         -3.11414       80.05726       11.53226
O         -4.10250       81.95948       10.94062
H          0.04818       83.03992        9.02837
H         -0.70470       80.20085        9.76811
H         -1.97294       82.98219       10.29015
H         -1.11394       81.96626       11.50102
H         -2.25815       79.49326       11.62376
H         -4.01117       79.65643       11.83969
N         -2.88312       80.33243        8.10637
C         -3.71043       80.18138        6.90651
C         -4.51113       81.43732        6.55982
O         -4.94662       81.53555        5.42059
C         -4.59291       78.90963        7.00005
C         -5.26741       78.74591        8.34810
C         -6.27393       79.61822        8.79198
C         -4.82720       77.71682        9.20433
C         -6.81932       79.46665       10.07420
C         -5.36656       77.57287       10.48110
C         -6.36073       78.44673       10.92414
O         -6.85590       78.30223       12.16964
H         -3.09779       79.77629        8.94023
H         -3.02525       80.01173        6.04400
H         -3.89266       78.05501        6.86893
H         -5.32062       78.84727        6.16238
H         -6.62920       80.41779        8.15605
H         -4.04016       77.03890        8.89616
H         -7.58919       80.14828       10.41152
H         -4.99682       76.78966       11.13179
H         -7.52992       78.89505       12.52959
N         -4.72628       82.44975        7.45310
C         -5.33386       83.72981        7.06388
C         -4.38785       84.54240        6.18028
O         -4.80887       85.54272        5.61649
C         -5.62194       84.59530        8.31645
C         -6.73577       84.03931        9.21133
C         -8.07599       84.15273        8.54113
O         -8.74995       83.15738        8.33380
O         -8.54640       85.36353        8.18044
H         -4.41706       82.32277        8.42583
H         -6.28007       83.53720        6.51136
H         -5.90951       85.62937        8.02236
H         -4.68509       84.67241        8.91135
H         -6.77678       84.64398       10.14261
H         -6.51630       82.98688        9.49254
N         -3.06574       84.22864        6.12570
C         -2.02311       85.02639        5.50074
C         -1.23242       84.20513        4.48594
O         -0.31467       84.75262        3.88933
C         -1.04236       85.43080        6.62630
C         -1.71882       86.15095        7.81398
C         -0.89640       86.06703        9.07445
O          0.19111       85.52009        9.08203
O         -1.40413       86.51098       10.23629
H         -2.74135       83.42856        6.66533
H         -2.45108       85.92478        5.00370
H         -0.19215       86.03992        6.24693
H         -0.62934       84.47029        7.00671
H         -2.66733       85.64870        8.07579
H         -1.94990       87.20307        7.54228
N         -1.47592       82.87670        4.27884
C         -0.63864       82.06492        3.42475
H          0.40655       82.08075        3.80426
H         -0.99429       81.01187        3.44054
H         -0.66673       82.44363        2.38325
H         -2.24467       82.39552        4.76347
Ca         1.51899       87.16720       11.03677
O          0.34432       84.22032       11.72955
H         -0.51762       84.33069       12.20380
H          0.86013       83.59007       12.29161
O          2.90050       86.18172        8.52811
H          3.73120       86.28149        8.00196
H          2.18438       86.16177        7.84790
O          4.60109       87.60524       10.76692
H          4.57118       87.85538        9.81058
H          4.73968       88.46341       11.24205

Ca 1.0



