%chk=holoCaM.loop2.water2.frame457.chk
%nprocshared=20
%mem=10GB
%nosave
#b3lyp/svp scf=(tight,noincore,xqc) Test 
#IOP(5/87=12) Density=Current Pop=(MK,readradii) iop(6/33=2) iop(6/42=6)

holoCaM.loop2.water2.frame457 

   -2  1 
C         13.26142       95.33936       55.87290
C         13.58520       96.30075       54.77541
O         14.76201       96.54832       54.55200
H         12.16775       95.17826       55.96050
H         13.74617       94.36493       55.64658
H         13.65582       95.72818       56.83341
N         12.59941       96.85008       54.00796
C         12.91835       97.67901       52.85902
C         13.51797       99.01798       53.31275
O         12.78253       99.85617       53.81641
C         11.66534       97.88621       51.96933
C         12.03924       98.39529       50.61352
O         11.18170       98.73395       49.81879
O         13.33099       98.40119       50.25525
H         11.61753       96.59121       54.19063
H         13.65164       97.08630       52.27073
H         10.96309       98.58601       52.47361
H         11.13423       96.92324       51.80649
N         14.86442       99.24341       53.25246
C         15.50783      100.42616       53.82148
C         15.37679      101.69223       52.98091
O         15.67796      102.75116       53.51447
C         16.99549      100.14235       54.06706
H         15.46555       98.47292       52.94526
H         15.04560      100.61131       54.81684
H         17.48556      101.00473       54.56652
H         17.10404       99.25327       54.72531
H         17.51521       99.93719       53.10585
N         14.99048      101.67915       51.67065
C         14.83692      102.90018       50.86967
C         13.39962      103.06838       50.38137
O         13.13031      104.05415       49.70869
C         15.91078      102.97374       49.75111
C         15.92041      101.77844       48.86007
O         16.85203      100.99178       48.90933
O         14.86075      101.49818       48.09390
H         14.80188      100.77384       51.21429
H         15.02784      103.80206       51.49091
H         16.90171      103.03290       50.25325
H         15.78956      103.89386       49.13974
N         12.39983      102.21515       50.76488
C         10.99358      102.47602       50.50031
C         10.56023      102.34719       49.05673
O          9.39929      102.63267       48.79654
H         12.60757      101.41082       51.37221
H         10.75226      103.49649       50.86994
H         10.37742      101.75722       51.08443
N         11.38794      101.90709       48.06399
C         10.94434      101.78364       46.67376
C          9.91365      100.65923       46.45438
O          9.49376      100.47598       45.32084
C         12.16450      101.69700       45.71751
C         12.97635      100.43197       45.75821
N         14.12111      100.34304       45.04205
O         12.60985       99.48310       46.42492
H         12.36632      101.68997       48.29087
H         10.46163      102.74636       46.39443
H         12.83739      102.54835       45.96473
H         11.82298      101.83244       44.66941
H         14.45091      101.13864       44.47647
H         14.68956       99.48459       45.06277
N          9.43064       99.89715       47.48543
C          8.36378       98.91563       47.35024
C          8.84484       97.51256       47.04367
O          8.00414       96.62495       46.99405
H          9.72995      100.08735       48.44499
H          7.61168       99.25687       46.60596
H          7.83489       98.85517       48.32685
N         10.15663       97.22468       46.81111
C         10.64913       95.88833       46.48403
C         11.81955       95.49158       47.37409
O         12.29003       96.30069       48.16372
C         11.09274       95.86264       44.99999
C          9.90426       96.09666       44.06220
O         12.07140       96.84708       44.78152
H         10.83658       97.99048       46.81491
H          9.84941       95.12806       46.62675
H         11.51266       94.85812       44.76689
H         12.51144       96.63584       43.91755
H          9.44735       97.09313       44.23727
H         10.24407       96.04608       43.00655
H          9.13605       95.31004       44.22105
N         12.35896       94.24305       47.26072
C         13.57268       93.80781       47.94175
C         14.63118       93.44372       46.90504
O         14.33436       92.77789       45.92222
C         13.32963       92.65516       48.96415
C         12.72253       91.38050       48.32687
C         12.48232       93.17255       50.14328
C         12.63711       90.20133       49.30042
H         11.90977       93.57228       46.61874
H         13.99207       94.63962       48.55012
H         14.32525       92.38397       49.38252
H         13.37108       91.05017       47.49023
H         11.70827       91.59165       47.92783
H         12.95967       94.06914       50.59513
H         11.45872       93.44181       49.81019
H         12.41560       92.41854       50.95349
H         13.64077       89.97122       49.70748
H         11.94508       90.40762       50.14082
H         12.25983       89.30422       48.76684
N         15.91830       93.82025       47.11719
C         17.06104       93.52223       46.26749
C         17.88854       92.45583       46.97803
O         17.42904       91.95854       47.99007
C         17.80095       94.86175       46.02477
C         18.96952       94.79460       45.08780
O         18.81719       94.41148       43.93899
O         20.18935       95.18658       45.50328
H         16.13466       94.29522       47.99498
H         16.73536       93.10212       45.29068
H         18.13408       95.27947       47.00064
H         17.08373       95.57348       45.57098
N         19.08137       92.00733       46.50794
C         19.82178       90.90559       47.12087
C         20.11041       91.08855       48.62093
O         19.76651       90.17661       49.35917
C         21.10889       90.63102       46.31751
C         21.82588       89.37844       46.76054
C         21.19170       88.12446       46.67592
C         23.14461       89.44765       47.23862
C         21.86642       86.96417       47.06468
C         23.81645       88.28348       47.62408
C         23.17842       87.04317       47.53691
H         19.46541       92.42556       45.65161
H         19.18175       90.00052       47.02257
H         21.77736       91.51326       46.38084
H         20.84272       90.49574       45.24643
H         20.17873       88.04030       46.30323
H         23.65480       90.40013       47.30811
H         21.37310       86.00306       46.99467
H         24.83401       88.34272       47.98695
H         23.70129       86.14294       47.83230
N         20.70958       92.19301       49.17407
C         21.00576       92.31560       50.60114
C         19.74366       92.30172       51.45325
O         19.72100       91.61161       52.46329
C         21.81494       93.61873       50.69017
C         21.29158       94.44112       49.53562
C         21.11169       93.38271       48.44668
H         21.67102       91.50124       50.96663
H         21.82430       94.11304       51.68594
H         22.86782       93.37524       50.42074
H         20.30187       94.84174       49.82932
H         21.91773       95.30861       49.23808
H         20.34503       93.76001       47.74474
H         22.06839       93.17276       47.92464
N         18.64201       93.00165       51.08267
C         17.38527       93.02862       51.82902
C         16.81949       91.61797       51.96368
O         16.39830       91.24872       53.05033
C         16.40105       93.99633       51.12595
C         16.97166       95.43909       51.13733
C         16.18835       96.42207       50.31992
O         15.73309       97.54325       50.88219
O         16.05604       96.27711       49.12050
H         18.68334       93.50539       50.18877
H         17.55438       93.43438       52.85196
H         15.41436       93.99403       51.63947
H         16.25209       93.64185       50.08949
H         17.99593       95.46957       50.72182
H         17.02900       95.79186       52.19068
N         16.87349       90.74833       50.91718
C         16.45139       89.36453       50.96732
H         15.71376       89.17438       50.16318
H         17.33062       88.71106       50.78009
H         16.00439       89.09099       51.94406
H         17.29180       91.06168       50.04344
Ca        14.21810       99.43129       48.52154
O         14.92506       96.78130       46.14309
H         15.31865       97.17832       45.32590
H         14.13397       97.34090       46.33477
O         17.29179       98.33420       47.28567
H         17.87306       97.77259       46.71517
H         17.92516       98.88105       47.81321

Ca 1.0



