%chk=holoCaM-CaMKII.loop4.water1.frame343.chk
%nprocshared=20
%mem=10GB
%nosave
#b3lyp/svp scf=(tight,noincore,xqc) Test 
#IOP(5/87=12) Density=Current Pop=(MK,readradii) iop(6/33=2) iop(6/42=6)

holoCaM-CaMKII.loop4.water1.frame343 

   -3  1 
C         20.48647       63.90276       45.70516
C         19.85087       63.08449       44.61669
O         20.25139       61.94948       44.41437
H         21.56533       64.04214       45.48565
H         20.01705       64.90724       45.78591
H         20.37078       63.38549       46.67978
N         18.84235       63.60941       43.87232
C         18.16006       62.90210       42.79178
C         19.13885       62.57270       41.66387
O         19.83043       63.47590       41.21377
C         17.03212       63.81256       42.26658
C         16.11143       63.15232       41.29228
O         15.25002       63.82337       40.75657
O         16.18835       61.83515       41.02951
H         18.53618       64.56964       44.09774
H         17.69509       61.97687       43.20144
H         17.48598       64.71040       41.79280
H         16.39690       64.15103       43.11527
N         19.23117       61.30958       41.14322
C         20.20111       60.92805       40.10515
C         19.52708       60.65908       38.74985
O         20.22736       60.61339       37.74855
C         21.01694       59.68046       40.59599
C         21.64123       59.95347       41.99050
C         22.09776       59.24499       39.58419
C         22.35822       58.74911       42.60665
H         18.59557       60.58498       41.50771
H         20.89813       61.77718       39.93359
H         20.30427       58.83289       40.70924
H         20.82771       60.20953       42.69706
H         22.34470       60.81180       41.93498
H         22.83446       60.05941       39.42284
H         22.62733       58.33556       39.92775
H         21.65387       58.94855       38.61541
H         23.25756       58.46614       42.02494
H         22.69609       59.00855       43.63194
H         21.66959       57.88073       42.67167
N         18.18598       60.45555       38.63933
C         17.49626       60.13490       37.38406
C         16.38562       61.14032       37.04501
O         15.74123       60.97114       36.01926
C         16.98863       58.66735       37.41559
C         16.05094       58.33653       38.54329
O         15.58456       57.21436       38.64277
O         15.73922       59.27894       39.44319
H         17.63669       60.48702       39.49862
H         18.20818       60.17757       36.53088
H         17.86915       57.99447       37.50557
H         16.48503       58.43911       36.45092
N         16.15758       62.24784       37.80899
C         15.24157       63.31927       37.44598
C         13.76841       62.96498       37.46519
O         13.11372       63.18267       36.45523
H         16.73495       62.41276       38.64161
H         15.52623       63.71523       36.44571
H         15.37371       64.15164       38.16867
N         13.15949       62.49400       38.59515
C         11.70152       62.34351       38.71444
C         11.10187       63.14836       39.87019
O          9.88302       63.21576       39.94279
C         11.28841       60.85740       38.75813
C         11.87687       60.03123       39.86355
O         11.72411       58.82053       39.84200
O         12.65819       60.56863       40.81046
H         13.75830       62.25934       39.39758
H         11.21846       62.75547       37.80203
H         11.63809       60.40569       37.80436
H         10.18197       60.76588       38.79375
N         11.86973       63.78284       40.80412
C         11.33369       64.61339       41.87163
C         11.48288       63.97858       43.23621
O         11.16675       64.64669       44.21145
H         12.88637       63.68310       40.78482
H         10.25253       64.82406       41.72874
H         11.86876       65.58753       41.84782
N         11.87088       62.67814       43.38828
C         11.90098       61.99515       44.67676
C         13.24350       61.32361       44.91364
O         14.00586       61.16033       43.96853
C         10.68270       61.04050       44.76652
C         10.60613       59.92851       43.69545
C         11.56790       58.80746       43.95757
N         11.44574       58.06341       45.07842
O         12.44111       58.54423       43.14692
H         12.07708       62.12245       42.55249
H         11.77275       62.74334       45.48910
H          9.78468       61.68011       44.61901
H         10.60163       60.60111       45.78251
H         10.74789       60.35274       42.68093
H          9.58923       59.48173       43.70943
H         10.69406       58.24782       45.75828
H         12.09179       57.28842       45.25724
N         13.63457       60.98415       46.17825
C         14.93950       60.39931       46.48002
C         14.74489       59.12907       47.29462
O         14.29840       59.20753       48.43173
C         15.83216       61.43262       47.23363
C         17.21865       60.86093       47.57667
C         16.02763       62.70624       46.39238
H         13.00463       61.20318       46.96624
H         15.46813       60.14111       45.53597
H         15.33099       61.71867       48.18498
H         17.13283       59.96640       48.22377
H         17.77008       60.59380       46.65245
H         17.81871       61.61330       48.13222
H         16.65478       63.44058       46.94224
H         16.52915       62.46479       45.43081
H         15.05485       63.19305       46.17461
N         15.05682       57.91439       46.76321
C         14.95756       56.65670       47.50479
C         16.03739       56.56084       48.56872
O         16.87855       57.44164       48.67182
C         15.15496       55.46716       46.53434
C         14.02489       55.35428       45.55235
N         14.23722       55.52252       44.22872
O         12.90256       55.09282       45.95936
H         15.36500       57.88271       45.78064
H         13.95552       56.57623       47.98221
H         15.19326       54.49849       47.07430
H         16.12696       55.59832       46.00915
H         15.17794       55.74183       43.87050
H         13.45455       55.44184       43.56301
N         16.09542       55.46039       49.37131
C         17.22020       55.17825       50.25220
C         18.46652       54.93568       49.41272
O         19.51600       55.46535       49.74344
C         16.92789       53.93955       51.12485
C         18.03805       53.68680       52.12257
C         18.34568       54.64677       53.10508
C         18.77542       52.49219       52.08181
C         19.37516       54.41825       54.02183
C         19.80475       52.26533       53.00165
C         20.10856       53.22939       53.97421
O         21.09905       53.02490       54.86589
H         15.33424       54.76657       49.31254
H         17.37029       56.04109       50.93737
H         16.77748       53.05530       50.46671
H         15.98622       54.10214       51.69308
H         17.79039       55.57412       53.16482
H         18.55770       51.73745       51.33685
H         19.60251       55.16732       54.77038
H         20.36597       51.34077       52.95673
H         21.63098       52.21646       54.86839
N         18.41410       54.14339       48.29875
C         19.57094       53.89829       47.43589
C         20.12494       55.15900       46.75842
O         21.18294       55.05201       46.15370
C         19.25667       52.82166       46.36416
C         18.19047       53.25628       45.33850
C         17.93341       52.21837       44.28005
O         18.59536       51.04434       44.27472
O         17.11407       52.44670       43.40451
H         17.51938       53.68325       48.07657
H         20.37355       53.48365       48.08595
H         18.91882       51.89312       46.87479
H         20.19649       52.58522       45.81718
H         18.52956       54.17673       44.82509
H         17.23178       53.46229       45.85299
N         19.49038       56.37112       46.80886
C         20.03296       57.59325       46.21214
C         20.40752       58.62675       47.27291
O         20.99139       59.63760       46.90662
C         19.01997       58.21931       45.22880
C         18.63462       57.28398       44.07947
C         17.69166       57.96433       43.12629
O         17.99235       58.08987       41.95073
O         16.50369       58.42702       43.55807
H         18.58966       56.44306       47.29036
H         20.97055       57.36410       45.65983
H         19.46438       59.14358       44.79624
H         18.09820       58.49358       45.78587
H         18.12948       56.38674       44.48580
H         19.55033       56.96853       43.53474
N         20.11959       58.45176       48.59533
C         20.49795       59.38023       49.63964
H         21.07382       60.24530       49.25270
H         19.58425       59.75414       50.14725
H         21.12496       58.84708       50.38638
H         19.59957       57.62909       48.90282
Ca        14.40140       59.26473       41.21333
O         14.61603       56.36289       41.36301
H         15.54397       56.10268       41.13640
H         14.08891       56.17418       40.54708

Ca 1.0



