%chk=holoCaM.loop1.water2.frame370.chk
%nprocshared=20
%mem=10GB
%nosave
#b3lyp/svp scf=(tight,noincore,xqc) Test 
#IOP(5/87=12) Density=Current Pop=(MK,readradii) iop(6/33=2) iop(6/42=6)

holoCaM.loop1.water2.frame370 

   0  1 
C         -7.94221        3.06605       73.08321
C         -9.18122        2.23142       73.08302
O        -10.23022        2.74096       73.44556
H         -7.06825        2.48484       72.72279
H         -8.08815        3.94916       72.42916
H         -7.73902        3.40208       74.12210
N         -9.12657        0.91804       72.73206
C        -10.27385        0.03722       72.80067
C        -10.09179       -0.90929       73.96796
O         -9.08591       -1.59928       74.04930
C        -10.49194       -0.67511       71.46701
C        -11.65752       -1.58963       71.59952
O        -11.59333       -2.74419       71.21305
O        -12.77848       -1.10224       72.16196
H         -8.22007        0.50416       72.46701
H        -11.19917        0.63107       72.98505
H         -9.59562       -1.22692       71.11296
H        -10.75533        0.09675       70.70850
N        -11.04866       -0.93987       74.93617
C        -10.93495       -1.64483       76.20311
C        -11.96813       -2.75910       76.36114
O        -11.87682       -3.47505       77.34845
C        -10.96754       -0.60405       77.36116
C        -12.21281        0.31818       77.37982
C        -12.13016        1.45938       78.40623
C        -12.19038        0.99628       79.86401
N        -12.12462        2.14746       80.76627
H        -11.89722       -0.39180       74.77438
H         -9.94814       -2.15428       76.25420
H        -10.07723        0.05074       77.23245
H        -10.86436       -1.13205       78.33123
H        -13.14298       -0.27251       77.52380
H        -12.27708        0.85087       76.41550
H        -12.99390        2.13907       78.23295
H        -11.19982        2.04328       78.22877
H        -11.34458        0.31285       80.08675
H        -13.14557        0.45111       80.03243
H        -12.91314        2.80774       80.57286
H        -12.19720        1.81604       81.75473
H        -11.21383        2.64744       80.64259
N        -12.94105       -3.00334       75.43030
C        -13.85740       -4.14733       75.49420
C        -13.76026       -5.04752       74.25162
O        -14.47820       -6.03578       74.18901
C        -15.29885       -3.67735       75.78731
C        -15.92070       -2.73875       74.79323
O        -17.17449       -2.30048       75.01322
O        -15.31639       -2.35964       73.80435
H        -13.03280       -2.36590       74.62974
H        -13.59314       -4.80196       76.35368
H        -15.29789       -3.16510       76.77400
H        -15.95375       -4.57185       75.87561
N        -12.84447       -4.81705       73.26635
C        -12.59182       -5.71530       72.14774
C        -13.70007       -5.80605       71.11801
O        -14.09484       -6.91316       70.78167
H        -12.20904       -4.01340       73.34767
H        -12.32963       -6.72619       72.53151
H        -11.69899       -5.33971       71.60350
N        -14.19553       -4.68604       70.51860
C        -15.09479       -4.70528       69.36030
C        -14.52623       -3.87362       68.19467
O        -15.21407       -3.72927       67.19409
C        -16.53433       -4.32045       69.77466
C        -16.61671       -3.01145       70.46525
O        -16.27067       -1.89324       69.83040
O        -16.91105       -2.96142       71.64764
H        -13.89813       -3.76895       70.88163
H        -15.20294       -5.73882       68.96467
H        -16.89449       -5.09903       70.48195
H        -17.21229       -4.31549       68.89564
N        -13.24431       -3.38902       68.20856
C        -12.59471       -2.77085       67.05703
C        -12.90256       -1.30448       66.82061
O        -12.31765       -0.76013       65.89234
H        -12.63218       -3.60097       69.00625
H        -12.80231       -3.37033       66.14367
H        -11.49612       -2.81403       67.22548
N        -13.76645       -0.58459       67.59046
C        -14.01271        0.84692       67.39464
C        -13.75063        1.64311       68.66670
O        -13.42496        1.07047       69.69840
C        -15.45587        1.08322       66.87481
C        -15.62049        0.62418       65.41954
O        -16.41066        0.48007       67.71095
H        -14.27590       -1.06525       68.34363
H        -13.31614        1.26882       66.63597
H        -15.67118        2.17156       66.85226
H        -16.43043       -0.49155       67.50621
H        -16.65137        0.84842       65.07215
H        -14.90916        1.17979       64.77010
H        -15.42868       -0.46334       65.31436
N        -13.84901        3.00090       68.64151
C        -13.65138        3.87635       69.79061
C        -14.93374        4.67261       69.99448
O        -15.40119        5.30174       69.05235
C        -12.42904        4.81034       69.54637
C        -11.14563        3.96510       69.31717
C        -12.23565        5.77323       70.73948
C         -9.93290        4.79407       68.88832
H        -14.07070        3.45818       67.74216
H        -13.43092        3.28766       70.71001
H        -12.62905        5.41099       68.63128
H        -11.32368        3.23544       68.49952
H        -10.89614        3.39260       70.23862
H        -12.01898        5.20504       71.66972
H        -11.40779        6.48606       70.55800
H        -13.14199        6.38971       70.90429
H         -9.62580        5.51623       69.67002
H         -9.07260        4.11714       68.70156
H        -10.16076        5.34067       67.94834
N        -15.53403        4.72142       71.21420
C        -16.75635        5.46532       71.50371
C        -16.42310        6.71382       72.29886
O        -15.25364        6.98754       72.51509
C        -17.78341        4.55025       72.22327
C        -18.24185        3.40910       71.30704
O        -17.26894        4.06989       73.44349
H        -15.07073        4.25235       72.00065
H        -17.22828        5.83281       70.56581
H        -18.70561        5.11776       72.45907
H        -16.80009        3.21178       73.27654
H        -18.97648        2.76429       71.83480
H        -18.72261        3.81962       70.39377
H        -17.36946        2.80209       71.00444
N        -17.40664        7.55699       72.71174
C        -17.16691        8.84130       73.36963
C        -16.35563        8.67688       74.64860
O        -15.31731        9.30801       74.78011
C        -18.52245        9.54042       73.65354
C        -18.34448       10.92413       74.28011
O        -19.22913        9.70077       72.44697
H        -18.38040        7.28624       72.51213
H        -16.59396        9.49163       72.67017
H        -19.11615        8.92401       74.37209
H        -19.93692        9.00467       72.41628
H        -17.82438       10.85445       75.25798
H        -17.75965       11.58007       73.60053
H        -19.34081       11.38470       74.45008
N        -16.78011        7.83815       75.62993
C        -16.06534        7.61697       76.88876
C        -14.66249        7.10148       76.63697
O        -13.71992        7.65509       77.18719
C        -16.83740        6.59624       77.75147
C        -18.17594        7.17596       78.23947
C        -19.04762        6.09108       78.88460
C        -20.40329        6.63462       79.36695
N        -20.26884        7.49844       80.54135
H        -17.64924        7.31251       75.45392
H        -15.99162        8.56725       77.46525
H        -16.24127        6.31786       78.64992
H        -17.00275        5.67587       77.14844
H        -18.75149        7.59645       77.38892
H        -17.95651        8.00053       78.95009
H        -18.51797        5.59647       79.72725
H        -19.25034        5.32504       78.10372
H        -21.04756        5.77083       79.64102
H        -20.90785        7.18442       78.54056
H        -21.21883        7.82399       80.83213
H        -19.84611        6.95718       81.33055
H        -19.68358        8.33704       80.33284
N        -14.45263        6.04567       75.80407
C        -13.13243        5.46833       75.55586
C        -12.15510        6.51254       75.02594
O        -10.97712        6.43872       75.34656
C        -13.20514        4.27539       74.57187
C        -14.16236        3.15642       75.03630
C        -14.18322        1.97595       74.10203
O        -14.44672        2.11550       72.92054
O        -13.98692        0.73806       74.58253
H        -15.27533        5.65335       75.32710
H        -12.73631        5.07979       76.52124
H        -12.18693        3.85181       74.47019
H        -13.52777        4.64806       73.57913
H        -15.19760        3.53704       75.09135
H        -13.87278        2.81169       76.05015
N        -12.58377        7.53371       74.23466
C        -11.70935        8.57017       73.73436
H        -10.92017        8.12837       73.09171
H        -12.29742        9.29426       73.12828
H        -11.24740        9.11869       74.58213
H        -13.57466        7.59527       73.99064
Ca       -14.58687       -1.05103       70.93269
O        -17.57937        0.34679       73.51872
H        -17.26280       -0.49312       73.10149
H        -18.47980        0.48793       73.13196
O        -17.57839        0.31576       70.59733
H        -16.80987        0.77005       70.16928
H        -18.36517        0.57682       70.05789

Ca 1.0



