%chk=holoCaM.loop2.water1.frame270.chk
%nprocshared=20
%mem=10GB
%nosave
#b3lyp/svp scf=(tight,noincore,xqc) Test 
#IOP(5/87=12) Density=Current Pop=(MK,readradii) iop(6/33=2) iop(6/42=6)

holoCaM.loop2.water1.frame270 

   -2  1 
C         37.70201       -0.41159       56.34885
C         37.42397       -1.21347       55.11329
O         36.71060       -2.20333       55.19211
H         38.36038        0.45611       56.12787
H         36.74679       -0.02891       56.76381
H         38.20574       -1.05252       57.10057
N         37.94982       -0.82910       53.92045
C         37.70307       -1.53989       52.67435
C         38.29347       -2.94632       52.76658
O         39.47762       -3.06221       53.04945
C         38.25948       -0.68360       51.51356
C         37.77394       -1.09695       50.16644
O         37.97386       -0.37121       49.20927
O         37.12593       -2.25394       49.99450
H         38.52731        0.02676       53.89693
H         36.60429       -1.58975       52.53050
H         39.36842       -0.61749       51.53218
H         37.84676        0.34106       51.65197
N         37.51375       -4.05941       52.58955
C         37.96682       -5.42402       52.87433
C         38.27455       -6.24549       51.63086
O         38.88377       -7.29683       51.77282
C         36.92926       -6.13252       53.74784
H         36.54279       -3.93384       52.28655
H         38.92446       -5.37144       53.43582
H         37.27713       -7.14918       54.02679
H         36.74882       -5.54813       54.67453
H         35.96741       -6.22417       53.19545
N         37.96743       -5.79641       50.38542
C         38.52442       -6.36656       49.15707
C         39.48019       -5.34936       48.51776
O         40.09696       -5.68247       47.51544
C         37.43091       -6.90160       48.17716
C         36.39659       -5.89766       47.74346
O         35.52520       -6.19424       46.94215
O         36.43563       -4.67942       48.28415
H         37.40969       -4.93951       50.31869
H         39.15930       -7.24773       49.39726
H         36.89761       -7.74755       48.66089
H         37.94213       -7.29707       47.27141
N         39.71454       -4.11932       49.08440
C         40.72635       -3.18520       48.62101
C         40.49578       -2.58908       47.24839
O         41.37809       -1.86731       46.80468
H         39.23475       -3.83895       49.94791
H         41.70628       -3.71023       48.62768
H         40.79669       -2.34020       49.34247
N         39.38205       -2.83917       46.49704
C         39.26916       -2.36719       45.11459
C         39.18991       -0.84375       44.97032
O         39.29460       -0.37104       43.84739
C         38.09280       -3.05004       44.38297
C         36.74507       -2.54077       44.81971
N         35.87890       -2.00385       43.93122
O         36.42758       -2.61691       45.98839
H         38.64853       -3.45152       46.87826
H         40.19327       -2.71790       44.60202
H         38.14696       -4.14699       44.56087
H         38.20365       -2.88316       43.29128
H         36.11681       -1.93790       42.93206
H         34.95862       -1.66190       44.24420
N         39.00009       -0.01850       46.04242
C         39.00320        1.43747       45.96208
C         37.71602        2.09599       46.43898
O         37.72661        3.31067       46.57699
H         38.88659       -0.42976       46.97512
H         39.21877        1.80069       44.93408
H         39.82849        1.79222       46.61649
N         36.56796        1.39481       46.67744
C         35.32396        2.01102       47.16117
C         34.82256        1.31963       48.42092
O         35.40319        0.33540       48.84816
C         34.23400        2.00746       46.05153
C         34.37073        3.20805       45.10471
O         34.22238        0.79462       45.34140
H         36.55797        0.38108       46.48905
H         35.49554        3.06547       47.47098
H         33.22917        2.14397       46.50314
H         34.95916        0.82485       44.67426
H         33.55377        3.18320       44.35166
H         34.26385        4.15024       45.68709
H         35.35105        3.21255       44.58758
N         33.73695        1.81968       49.08546
C         33.21427        1.25922       50.32641
C         31.81768        0.70816       50.08257
O         30.89180        1.47206       49.84666
C         33.24090        2.34917       51.44967
C         34.71265        2.68231       51.81526
C         32.45158        1.92107       52.70196
C         34.86519        3.79500       52.85677
H         33.26006        2.65078       48.70416
H         33.84601        0.41081       50.66427
H         32.74099        3.26335       51.05740
H         35.25107        3.00929       50.90055
H         35.21511        1.76817       52.20383
H         31.39412        1.71065       52.45089
H         32.90957        1.03214       53.16967
H         32.40747        2.73849       53.44786
H         34.38535        4.72928       52.49767
H         34.42790        3.50504       53.83386
H         35.94403        3.98979       53.03152
N         31.60765       -0.63886       50.13996
C         30.29214       -1.26921       50.05924
C         29.53157       -1.05744       51.36560
O         30.06811       -0.44348       52.27472
C         30.45941       -2.78812       49.82188
C         31.17738       -3.08934       48.53901
O         32.33522       -3.77718       48.55894
O         30.70262       -2.73417       47.47209
H         32.42582       -1.25086       50.25458
H         29.72380       -0.84434       49.20286
H         29.46658       -3.27763       49.75662
H         31.02543       -3.23474       50.67021
N         28.27170       -1.55669       51.53834
C         27.55445       -1.45557       52.80786
C         28.23665       -2.28343       53.90234
O         28.44482       -1.72093       54.96771
C         26.05984       -1.80362       52.65221
C         25.29254       -1.56206       53.93453
C         25.20252       -0.26887       54.48664
C         24.65407       -2.62874       54.58870
C         24.48947       -0.05282       55.66948
C         23.94227       -2.40730       55.77183
C         23.85961       -1.12110       56.31149
H         27.80632       -2.01599       50.74217
H         27.56752       -0.38531       53.11262
H         25.93111       -2.84701       52.32123
H         25.61863       -1.15959       51.86112
H         25.67853        0.57501       54.00362
H         24.70916       -3.63196       54.18566
H         24.42376        0.94385       56.08750
H         23.45374       -3.23400       56.27035
H         23.30661       -0.95190       57.22637
N         28.65777       -3.58655       53.74991
C         29.41549       -4.32274       54.76383
C         30.72626       -3.67462       55.21042
O         31.35919       -4.21538       56.10573
C         29.77092       -5.64455       54.06598
C         28.59882       -5.83770       53.14154
C         28.40314       -4.42634       52.59672
H         28.74073       -4.47219       55.63578
H         30.65378       -5.48611       53.40006
H         29.99978       -6.48992       54.74925
H         28.73295       -6.61648       52.36067
H         27.71922       -6.10389       53.77130
H         29.14396       -4.18817       51.81385
H         27.37496       -4.37279       52.20553
N         31.21469       -2.55090       54.60783
C         32.48295       -1.91808       54.94407
C         32.27494       -0.51904       55.52067
O         33.22912        0.03141       56.05281
C         33.33924       -1.83501       53.66333
C         33.54524       -3.21119       53.00364
C         34.19782       -3.12335       51.65259
O         34.54800       -2.05208       51.18616
O         34.38715       -4.24817       50.93737
H         30.70082       -2.14179       53.82699
H         33.01106       -2.51599       55.71861
H         34.32264       -1.36181       53.87824
H         32.79147       -1.19728       52.93653
H         32.56148       -3.69457       52.83346
H         34.15208       -3.85809       53.67227
N         31.07167        0.12398       55.44744
C         30.80055        1.42431       56.02106
H         29.93776        1.33560       56.71601
H         31.66553        1.82984       56.58289
H         30.52590        2.13401       55.21253
H         30.29038       -0.30115       54.94612
Ca        35.58027       -2.64526       48.42662
O         33.42081       -1.69306       46.60807
H         32.74726       -1.00120       46.39170
H         33.12872       -2.49055       46.09933

Ca 1.0



