%chk=holoCaM-CaMKII.loop2.water1.frame279.chk
%nprocshared=20
%mem=10GB
%nosave
#b3lyp/svp scf=(tight,noincore,xqc) Test 
#IOP(5/87=12) Density=Current Pop=(MK,readradii) iop(6/33=2) iop(6/42=6)

holoCaM-CaMKII.loop2.water1.frame279 

   -2  1 
C         29.56240       36.90675       66.05843
C         30.36912       37.81803       65.18601
O         30.96036       38.76203       65.69226
H         28.50483       36.90829       65.72441
H         29.96930       35.87560       65.98830
H         29.60957       37.23484       67.11891
N         30.46409       37.57264       63.84967
C         31.29552       38.38237       62.97344
C         30.75262       39.79721       62.86611
O         29.66708       39.99279       62.33709
C         31.40799       37.73323       61.57952
C         32.38966       38.42274       60.66857
O         32.59058       37.96556       59.56071
O         33.06836       39.51855       61.05377
H         29.97627       36.74840       63.46485
H         32.31598       38.38589       63.40995
H         30.40843       37.70901       61.09166
H         31.75859       36.68595       61.70675
N         31.48026       40.83689       63.35340
C         31.08471       42.23001       63.23322
C         31.08025       42.65856       61.77602
O         30.05445       43.11742       61.29412
C         32.04921       43.12011       64.03515
H         32.35405       40.62162       63.84440
H         30.07372       42.36379       63.67852
H         32.03829       42.81851       65.10492
H         33.09249       43.03045       63.66419
H         31.73857       44.18427       63.97005
N         32.21436       42.56133       61.02227
C         32.31369       43.06257       59.65208
C         31.46411       42.29613       58.64286
O         31.41483       42.73241       57.49975
C         33.78024       43.00030       59.16098
C         34.72008       43.77056       60.04573
O         34.55285       45.09412       60.22149
O         35.64718       43.20230       60.59998
H         33.05961       42.17803       61.47006
H         31.98947       44.12702       59.65662
H         33.85576       43.42266       58.13529
H         34.10141       41.93777       59.11854
N         30.82386       41.12625       58.94228
C         30.11764       40.34523       57.93366
C         31.03502       39.74376       56.87042
O         30.51753       39.12788       55.94947
H         30.84131       40.75648       59.90137
H         29.35335       40.99261       57.44977
H         29.58757       39.50185       58.42611
N         32.39565       39.87651       56.92093
C         33.30984       39.38989       55.88615
C         33.49097       37.86406       55.87917
O         34.26749       37.37338       55.07158
C         34.65732       40.16260       55.98327
C         35.62619       39.76870       57.11426
N         36.36457       38.56588       56.77487
O         34.95654       39.58309       58.32626
H         32.80331       40.41768       57.68844
H         32.89094       39.70483       54.90416
H         34.41804       41.24319       56.08840
H         35.20765       40.06623       55.02219
H         36.86075       38.70993       55.86648
H         37.11261       38.49771       57.48794
N         32.78366       37.04803       56.71580
C         32.85728       35.59623       56.70522
C         34.00855       34.98978       57.48905
O         34.02477       33.76987       57.57203
H         32.05869       37.45057       57.31652
H         32.83225       35.21696       55.66047
H         31.93995       35.21466       57.20625
N         34.98634       35.72611       58.10273
C         36.04410       35.10838       58.91695
C         36.05048       35.71613       60.32464
O         35.20400       36.55146       60.61136
C         37.42094       35.18132       58.20746
C         37.33571       34.71936       56.74578
O         37.93467       36.47453       58.25101
H         34.98951       36.74879       57.99665
H         35.84407       34.02141       59.03602
H         38.11505       34.50384       58.75675
H         38.90630       36.40716       58.05357
H         36.92746       33.68978       56.68238
H         36.68610       35.40578       56.15941
H         38.34531       34.73371       56.28375
N         36.96353       35.32469       61.26512
C         36.93513       35.77586       62.65908
C         38.19535       36.57855       62.98577
O         39.29341       36.08246       62.77906
C         36.78204       34.54162       63.60494
C         35.51351       33.72452       63.23494
C         36.72240       34.99092       65.08020
C         35.36428       32.42252       64.02793
H         37.68830       34.64096       61.00266
H         36.05293       36.42409       62.84169
H         37.67092       33.88550       63.47168
H         35.56685       33.43008       62.16571
H         34.60289       34.34731       63.37642
H         37.64274       35.53457       65.35766
H         35.84429       35.64941       65.25641
H         36.66696       34.12734       65.77066
H         34.47235       31.87029       63.66427
H         36.25957       31.78096       63.88313
H         35.21653       32.61074       65.10978
N         38.09095       37.80807       63.57846
C         39.22961       38.60630       64.04396
C         39.41484       38.38113       65.53557
O         38.61926       37.66661       66.11911
C         38.95984       40.10610       63.77542
C         38.62960       40.35291       62.33435
O         37.38028       40.74963       62.01242
O         39.46266       40.14894       61.46954
H         37.15362       38.14670       63.82356
H         40.15915       38.28099       63.52789
H         39.82387       40.73530       64.07783
H         38.08126       40.41385       64.38602
N         40.45832       38.92204       66.22884
C         40.63301       38.65565       67.65552
C         39.47893       39.23536       68.47941
O         38.86857       38.45462       69.19765
C         42.01544       39.11059       68.17594
C         42.20236       38.72247       69.62679
C         42.24416       37.36692       70.00461
C         42.32658       39.71193       70.61715
C         42.40480       37.01161       71.34687
C         42.48248       39.35120       71.95940
C         42.52205       38.00278       72.32383
H         41.15812       39.48779       65.72603
H         40.63228       37.54950       67.78402
H         42.15025       40.19509       68.05744
H         42.81860       38.63139       67.57547
H         42.15576       36.58376       69.26233
H         42.29182       40.76149       70.35335
H         42.43709       35.96707       71.62951
H         42.57065       40.11778       72.71807
H         42.64334       37.72565       73.36304
N         39.08663       40.55359       68.43690
C         37.95114       41.09496       69.18243
C         36.69670       40.25415       69.06184
O         36.05203       39.97418       70.06176
C         37.69904       42.45609       68.51327
C         39.09371       42.87863       68.14285
C         39.67174       41.58027       67.59032
H         38.24417       41.22923       70.24811
H         37.15796       42.32241       67.54757
H         37.12442       43.17618       69.13383
H         39.16460       43.74503       67.45127
H         39.62453       43.12966       69.08998
H         39.35779       41.39611       66.54071
H         40.76524       41.67289       67.65560
N         36.31035       39.81591       67.83447
C         35.09712       39.05307       67.57145
C         35.10376       37.75764       68.36351
O         34.18129       37.53225       69.13425
C         34.96875       38.78095       66.05379
C         34.87814       40.09678       65.24668
C         34.82287       39.88534       63.76195
O         34.77516       40.85642       63.02510
O         34.82288       38.65080       63.22672
H         36.93428       40.03918       67.04667
H         34.21231       39.65522       67.87866
H         34.05335       38.17927       65.86053
H         35.84949       38.19693       65.71612
H         35.76037       40.73978       65.42818
H         33.97744       40.66010       65.57093
N         36.13611       36.87818       68.24710
C         36.24097       35.64487       68.99827
H         37.15805       35.67776       69.62456
H         35.36817       35.47676       69.66227
H         36.32202       34.79131       68.29403
H         36.90680       37.10075       67.61121
Ca        36.18372       40.37727       60.10395
O         38.47872       38.76659       59.50207
H         39.41448       38.62988       59.21068
H         38.35254       38.14069       60.25989

Ca 1.0



