%chk=holoCaM-CaMKII.loop1.water2.frame435.chk
%nprocshared=20
%mem=10GB
%nosave
#b3lyp/svp scf=(tight,noincore,xqc) Test 
#IOP(5/87=12) Density=Current Pop=(MK,readradii) iop(6/33=2) iop(6/42=6)

holoCaM-CaMKII.loop1.water2.frame435 

   0  1 
C         77.26901       71.95833       35.99679
C         78.47797       72.80304       36.23521
O         79.02236       72.77696       37.32808
H         76.41185       72.61304       35.73458
H         77.46934       71.25809       35.15915
H         77.01513       71.37500       36.90676
N         78.96544       73.58218       35.23451
C         80.13670       74.42839       35.40089
C         79.82664       75.49883       36.43561
O         78.88751       76.25454       36.22488
C         80.52400       75.02463       34.03229
C         81.85827       75.70385       34.00021
O         82.65100       75.76805       35.08669
O         82.24957       76.16379       32.94383
H         78.48944       73.55341       34.31850
H         80.97531       73.78765       35.73068
H         79.73655       75.72982       33.68745
H         80.59190       74.19326       33.29592
N         80.55295       75.60568       37.58824
C         80.22110       76.55645       38.64699
C         81.18995       77.72920       38.70443
O         80.91733       78.64164       39.47330
C         80.18124       75.85253       40.02625
C         79.10905       74.76170       40.21642
C         77.67883       75.31295       40.07366
C         76.59461       74.36986       40.62846
N         76.49076       73.11000       39.89344
H         81.36981       74.99275       37.72232
H         79.23253       77.02172       38.44749
H         80.00088       76.61687       40.81429
H         81.17932       75.40242       40.22619
H         79.23603       74.38360       41.25508
H         79.27855       73.91181       39.52776
H         77.46767       75.56189       39.01142
H         77.60625       76.24573       40.67324
H         75.61644       74.89749       40.57166
H         76.80123       74.16100       41.70218
H         77.37898       72.56505       39.96225
H         75.72175       72.54145       40.31865
H         76.25474       73.29631       38.89229
N         82.31525       77.80387       37.93305
C         83.19983       78.96900       37.93549
C         83.34750       79.59966       36.53878
O         84.04502       80.59852       36.43060
C         84.55109       78.62962       38.59641
C         85.34215       77.60897       37.84650
O         86.39496       77.93063       37.31932
O         84.92913       76.33259       37.76044
H         82.56278       77.01260       37.32659
H         82.77158       79.76984       38.57678
H         84.38962       78.26969       39.63667
H         85.14327       79.56936       38.66063
N         82.66369       79.13549       35.44779
C         82.62158       79.82771       34.16212
C         83.92101       79.82157       33.37769
O         84.43745       80.88527       33.06877
H         82.04571       78.31873       35.54496
H         82.27595       80.87057       34.33027
H         81.86300       79.32948       33.51907
N         84.46314       78.64310       32.96826
C         85.65583       78.50755       32.12008
C         85.39492       77.68239       30.85174
O         86.33603       77.45853       30.10252
C         86.79687       77.87568       32.94765
C         86.47147       76.52835       33.53106
O         85.41529       75.96539       33.29209
O         87.28267       75.99629       34.45371
H         83.99016       77.79466       33.29331
H         86.01609       79.50809       31.79464
H         86.99419       78.56242       33.79964
H         87.73076       77.80217       32.35014
N         84.15816       77.19494       30.54221
C         83.87620       76.35963       29.38321
C         84.57589       75.01938       29.46239
O         85.24665       74.65265       28.51441
H         83.35708       77.42756       31.14048
H         84.14604       76.89575       28.44654
H         82.78398       76.15618       29.35571
N         84.41301       74.22896       30.56092
C         85.00911       72.90361       30.78869
C         84.45046       72.32970       32.09328
O         84.46891       73.01313       33.10910
C         86.57227       72.88998       30.87763
C         87.31112       72.79721       29.53798
O         87.06759       73.98997       31.58951
H         83.79357       74.60509       31.29535
H         84.71161       72.20377       29.97781
H         86.87108       71.93895       31.38140
H         86.74152       73.90032       32.51517
H         88.38953       72.61011       29.72931
H         86.92060       71.94576       28.93916
H         87.27139       73.72602       28.95023
N         83.98226       71.04738       32.13873
C         83.41770       70.43481       33.33781
C         84.40954       69.43296       33.91019
O         84.66991       68.41222       33.28782
C         82.03619       69.79008       32.99403
C         81.01441       70.89967       32.63230
C         81.50071       68.90390       34.13731
C         79.69538       70.36280       32.07080
H         84.05992       70.46198       31.29287
H         83.25170       71.20286       34.11796
H         82.18529       69.12758       32.11164
H         81.44584       71.56094       31.85132
H         80.80520       71.52097       33.53182
H         81.32722       69.50064       35.05347
H         80.55781       68.39861       33.85052
H         82.21036       68.08346       34.36133
H         79.03161       71.21496       31.81446
H         79.88749       69.77401       31.14855
H         79.15535       69.73194       32.80407
N         85.00270       69.68126       35.11702
C         85.89210       68.73430       35.79261
C         85.09709       67.55173       36.32878
O         83.88497       67.53642       36.22006
C         86.65121       69.40999       36.97621
C         87.61148       70.50447       36.50411
O         85.76220       69.89566       37.95376
H         84.81300       70.58648       35.56925
H         86.65456       68.37196       35.06847
H         87.30192       68.66099       37.47272
H         85.48177       70.81573       37.70969
H         88.15963       70.92883       37.37227
H         88.35071       70.08753       35.78731
H         87.03958       71.31186       36.01777
N         85.73534       66.53000       36.96380
C         85.03483       65.42840       37.62317
C         84.17639       65.97372       38.76183
O         82.99588       65.66041       38.83511
C         86.07003       64.41150       38.16632
C         85.39775       63.18245       38.78586
O         86.88983       63.98504       37.10694
H         86.76426       66.55321       37.00543
H         84.39993       64.89455       36.88045
H         86.68758       64.92091       38.94512
H         87.79184       63.81320       37.48514
H         84.78143       62.65836       38.02396
H         86.17447       62.48078       39.15676
H         84.75164       63.46919       39.64114
N         84.72545       66.83766       39.66164
C         84.03494       67.45045       40.79892
C         82.72337       68.09408       40.38122
O         81.69119       67.76232       40.94611
C         85.00116       68.48520       41.43216
C         84.48516       69.30648       42.62140
C         84.04014       68.45036       43.80998
C         83.79199       69.33496       45.04050
N         83.29189       68.54538       46.16393
H         85.71112       67.10230       39.50200
H         83.80631       66.66361       41.55117
H         85.31048       69.21504       40.65133
H         85.91525       67.94208       41.76001
H         83.64932       69.96848       42.30547
H         85.33156       69.95545       42.94009
H         84.83211       67.71259       44.06341
H         83.11132       67.90521       43.53648
H         83.05573       70.13328       44.79911
H         84.75079       69.82183       45.33228
H         83.20045       69.16418       47.00189
H         82.35142       68.15344       45.92811
H         83.95471       67.76775       46.38679
N         82.69397       69.00610       39.37715
C         81.47678       69.65878       38.90007
C         80.45494       68.63481       38.43809
O         79.35035       68.63155       38.96547
C         81.84327       70.65081       37.77692
C         82.60164       71.85211       38.37467
C         83.15452       72.79888       37.35529
O         83.80206       73.89602       37.77769
O         83.05441       72.58414       36.15990
H         83.58744       69.22666       38.91907
H         81.01035       70.23920       39.72863
H         80.92957       71.03371       37.27571
H         82.46441       70.12666       37.01714
H         83.46010       71.51043       38.98742
H         81.90380       72.41082       39.03665
N         80.75280       67.71484       37.48488
C         79.80531       66.70451       37.06701
H         78.90588       67.18426       36.62694
H         80.26830       66.04122       36.30600
H         79.50510       66.08375       37.93910
H         81.68470       67.71523       37.05938
Ca        85.97553       75.25915       36.10514
O         87.66416       73.31190       34.76547
H         88.57187       73.21113       35.14433
H         87.56242       72.54966       34.14242
O         87.13368       73.63463       38.20578
H         86.64427       73.39382       39.03135
H         87.31371       74.60401       38.29998

Ca 1.0



