%chk=holoCaM-CaMKII.loop3.water1.frame462.chk
%nprocshared=20
%mem=10GB
%nosave
#b3lyp/svp scf=(tight,noincore,xqc) Test 
#IOP(5/87=12) Density=Current Pop=(MK,readradii) iop(6/33=2) iop(6/42=6)

holoCaM-CaMKII.loop3.water1.frame462 

   0  1 
C         79.85266       68.11254       30.35573
C         79.31128       67.41555       29.14281
O         79.95334       67.43732       28.10195
H         80.83027       68.59196       30.13468
H         79.13683       68.88775       30.69746
H         80.00205       67.37029       31.16933
N         78.13511       66.73349       29.22246
C         77.60471       65.94864       28.11502
C         77.19476       66.85086       26.95202
O         76.28592       67.65696       27.09105
C         76.44383       65.06527       28.61601
C         75.98009       64.01987       27.64207
O         76.48056       63.90655       26.53638
O         75.01142       63.16839       28.01698
H         77.64632       66.71617       30.13160
H         78.41512       65.25729       27.79874
H         75.58573       65.70396       28.91662
H         76.79770       64.51001       29.51218
N         77.88875       66.78457       25.78360
C         77.68798       67.65500       24.62525
C         76.36099       67.41552       23.89969
O         75.94857       68.28872       23.14935
C         78.89703       67.43201       23.68388
C         79.05262       68.37800       22.48835
C         80.39161       68.05574       21.79056
C         80.73363       68.97497       20.61121
N         79.80536       68.81389       19.49322
H         78.68256       66.13412       25.75954
H         77.71645       68.70473       24.99355
H         78.87833       66.38057       23.31723
H         79.80902       67.56245       24.31010
H         79.07328       69.42891       22.85065
H         78.20212       68.24696       21.78878
H         80.39438       66.99874       21.44318
H         81.20999       68.17072       22.53629
H         81.75727       68.71012       20.26172
H         80.75156       70.03506       20.94699
H         79.79299       67.81604       19.17924
H         78.84402       69.11702       19.76498
H         80.13013       69.41081       18.69862
N         75.67973       66.23677       24.01279
C         74.43789       65.93127       23.28971
C         73.29934       65.47623       24.19397
O         72.20235       65.29733       23.68019
C         74.70367       64.86169       22.20739
C         75.56022       63.72480       22.69765
O         76.63560       63.53019       22.15277
O         75.23602       62.97306       23.76939
H         76.09658       65.49335       24.58732
H         74.05513       66.83700       22.76875
H         75.25850       65.35276       21.37745
H         73.74975       64.48358       21.77946
N         73.45744       65.26142       25.52777
C         72.37029       64.84344       26.39207
C         71.74789       63.53128       25.96922
O         70.54255       63.51019       25.76044
H         74.37096       65.41208       25.96928
H         71.58982       65.63669       26.40739
H         72.75416       64.73022       27.42844
N         72.48897       62.38731       25.86969
C         71.88008       61.07933       25.62404
C         72.01022       60.16146       26.83299
O         71.47617       59.06255       26.77655
C         72.42202       60.40570       24.34013
C         73.85848       59.93837       24.36962
N         74.34538       59.23501       23.32168
O         74.57684       60.15917       25.33177
H         73.50529       62.44181       26.03012
H         70.78800       61.20186       25.46031
H         72.27947       61.08838       23.47505
H         71.80282       59.49953       24.15894
H         73.75028       59.02032       22.50794
H         75.31093       58.88226       23.33143
N         72.69004       60.53364       27.95908
C         72.79955       59.69089       29.13622
C         74.21760       59.24538       29.41178
O         74.39830       58.53827       30.39422
H         73.14785       61.45174       28.01185
H         72.18415       58.77368       29.03471
H         72.41414       60.25936       30.01074
N         75.27700       59.60575       28.62516
C         76.63903       59.15698       28.91419
C         77.68551       59.97070       28.17499
O         77.33929       60.75639       27.30118
C         76.78152       57.63906       28.60998
C         76.73339       57.29744       27.12979
C         77.88752       57.44037       26.33859
C         75.56176       56.80013       26.53178
C         77.87600       57.09881       24.98485
C         75.54866       56.46516       25.17028
C         76.70889       56.61108       24.39410
O         76.71650       56.28517       23.08518
H         75.11408       60.24626       27.83805
H         76.82005       59.34703       29.99558
H         75.97871       57.08756       29.14112
H         77.73207       57.24021       29.02443
H         78.80618       57.79978       26.77234
H         74.65808       56.67605       27.11441
H         78.77909       57.20861       24.39635
H         74.63914       56.08876       24.71918
H         75.93289       55.94267       22.63249
N         79.00457       59.84535       28.50023
C         80.05373       60.57755       27.80034
C         81.07263       59.63488       27.19737
O         81.15061       58.47403       27.57829
C         80.74337       61.63384       28.71545
C         81.44846       60.98467       29.93685
C         79.71769       62.69783       29.14129
C         82.26326       61.97671       30.77027
H         79.26837       59.21198       29.27089
H         79.61018       61.12814       26.94604
H         81.51774       62.15004       28.10583
H         82.16047       60.21205       29.57610
H         80.70463       60.49112       30.59776
H         78.92647       62.25533       29.78241
H         80.20170       63.53127       29.68884
H         79.24212       63.13511       28.24016
H         82.77720       61.43261       31.59087
H         83.03200       62.47073       30.13852
H         81.61567       62.74680       31.23515
N         81.90152       60.10521       26.23086
C         82.98810       59.34779       25.63291
C         84.28726       60.10260       25.85339
O         84.26594       61.16213       26.46171
C         82.69665       59.14366       24.13644
O         82.60385       60.37994       23.47681
H         81.76145       61.07140       25.90079
H         83.08094       58.34356       26.10137
H         81.74422       58.56761       24.04589
H         83.49364       58.53879       23.65570
H         81.79005       60.35354       22.90900
N         85.46745       59.62370       25.38136
C         86.71974       60.36347       25.50763
C         86.63324       61.69316       24.77423
O         86.97221       62.71532       25.35335
C         87.88083       59.53837       24.95117
H         85.47096       58.71127       24.89964
H         86.94275       60.54406       26.58402
H         88.83419       60.09479       25.08016
H         87.95931       58.58286       25.51324
H         87.73216       59.31366       23.87436
N         86.14298       61.74690       23.50193
C         86.01710       62.97656       22.72159
C         85.24249       64.04568       23.46761
O         85.74145       65.15642       23.58608
C         85.32264       62.68344       21.38539
H         85.82022       60.86431       23.07521
H         87.03342       63.36839       22.49336
H         84.29547       62.29192       21.55104
H         85.25664       63.61071       20.77627
H         85.90220       61.92985       20.81128
N         84.02976       63.77051       24.02470
C         83.24864       64.75721       24.76911
C         84.07740       65.33462       25.90213
O         84.25936       66.54357       25.95050
C         81.94779       64.13679       25.33119
C         81.01228       63.63836       24.21684
C         79.71457       63.11277       24.75497
O         78.97400       63.85647       25.36708
O         79.30093       61.85690       24.50302
H         83.67340       62.80875       23.93715
H         82.96181       65.58853       24.08469
H         81.41281       64.91781       25.91711
H         82.19441       63.30162       26.01673
H         81.49292       62.84402       23.61565
H         80.77559       64.48858       23.53960
N         84.64677       64.51917       26.82812
C         85.48843       65.01743       27.89138
H         86.35788       65.56002       27.46191
H         84.90808       65.69754       28.54842
H         85.86915       64.16744       28.49731
H         84.50184       63.50639       26.76144
Ca        77.05181       61.73867       24.30704
O         77.61043       59.50529       22.58308
H         78.59919       59.49110       22.59504
H         77.37365       60.29140       22.02896

Ca 1.0



