%chk=holoCaM-CaMKII.loop4.water1.frame311.chk
%nprocshared=20
%mem=10GB
%nosave
#b3lyp/svp scf=(tight,noincore,xqc) Test 
#IOP(5/87=12) Density=Current Pop=(MK,readradii) iop(6/33=2) iop(6/42=6)

holoCaM-CaMKII.loop4.water1.frame311 

   -3  1 
C         51.98213       20.32130       54.54604
C         51.30846       21.62625       54.86231
O         51.67232       22.63653       54.27777
H         53.06222       20.38300       54.78862
H         51.53414       19.48236       55.12019
H         51.86231       20.09879       53.46385
N         50.28350       21.67257       55.75769
C         49.51464       22.88364       56.01725
C         50.36206       23.95517       56.69470
O         50.83673       23.73831       57.80097
C         48.29252       22.53685       56.88217
C         47.24943       23.61138       56.91271
O         46.20102       23.37673       57.48260
O         47.38146       24.75203       56.20301
H         49.99266       20.79122       56.20980
H         49.13376       23.23677       55.03080
H         48.60665       22.25892       57.91159
H         47.78877       21.65453       56.42681
N         50.60465       25.13537       56.06039
C         51.45126       26.19901       56.60482
C         50.70501       27.03417       57.66303
O         51.35205       27.82993       58.32724
C         51.96571       27.12801       55.43403
C         52.67710       26.29924       54.32037
C         52.91733       28.24273       55.93232
C         53.04804       27.12198       53.07975
H         50.22513       25.23556       55.11499
H         52.34377       25.71980       57.06710
H         51.07780       27.61647       54.97630
H         52.00668       25.50188       53.94605
H         53.58813       25.80957       54.72646
H         53.23930       28.90518       55.10784
H         52.42524       28.93844       56.63345
H         53.81629       27.80165       56.41347
H         52.14702       27.62438       52.66811
H         53.82204       27.88314       53.29783
H         53.46404       26.45040       52.30002
N         49.34990       26.96122       57.84561
C         48.60257       27.93800       58.64619
C         47.91492       27.34045       59.86067
O         47.33209       28.10227       60.62167
C         47.50159       28.59003       57.77298
C         48.01371       29.22973       56.51360
O         48.55785       28.55576       55.65491
O         47.81972       30.54427       56.29895
H         48.80775       26.26425       57.32756
H         49.28624       28.73167       59.01932
H         46.97354       29.36470       58.37176
H         46.75557       27.81544       57.48419
N         47.88980       26.00284       60.09965
C         47.13995       25.41940       61.19820
C         45.65820       25.70400       61.06783
O         45.04067       26.14707       62.02536
H         48.37949       25.35550       59.46555
H         47.53018       25.77582       62.17651
H         47.26943       24.31655       61.15630
N         45.02978       25.45048       59.88845
C         43.59008       25.54684       59.67003
C         43.02590       24.18819       59.22521
O         41.85161       24.12024       58.89111
C         43.25976       26.70372       58.69113
C         43.81380       26.57259       57.30548
O         43.60417       27.44773       56.48107
O         44.53275       25.50114       56.95624
H         45.61469       25.14274       59.10189
H         43.06868       25.81895       60.61401
H         43.65090       27.65003       59.12488
H         42.15523       26.79940       58.60663
N         43.78786       23.04849       59.27488
C         43.28474       21.71179       58.98655
C         43.12347       21.37144       57.51606
O         42.69290       20.25700       57.24736
H         44.74415       23.09088       59.65097
H         42.32621       21.56089       59.52887
H         44.01103       20.97352       59.39033
N         43.43559       22.23862       56.51197
C         43.24588       21.93791       55.09148
C         44.51466       22.13924       54.28582
O         45.50413       22.61818       54.81733
C         42.03624       22.76341       54.55542
C         42.01991       24.28807       54.86369
C         42.78825       25.25558       53.93197
N         41.95697       25.69437       52.81805
O         43.96094       24.70654       53.42262
H         43.78897       23.16781       56.76330
H         42.98047       20.86467       54.96129
H         41.17194       22.34865       55.12031
H         41.83275       22.56919       53.48068
H         42.31750       24.46778       55.91002
H         40.95836       24.61730       54.84430
H         41.13902       26.21806       53.20554
H         42.50903       26.38906       52.26573
N         44.56242       21.76163       52.98080
C         45.66693       22.05704       52.06994
C         45.06073       22.62714       50.79460
O         44.23332       21.94905       50.19526
C         46.51008       20.77936       51.78131
C         47.62488       21.05020       50.75218
C         47.17005       20.26147       53.07252
H         43.75182       21.24577       52.60006
H         46.36347       22.80021       52.51882
H         45.84761       19.98603       51.37169
H         47.20548       21.39292       49.78453
H         48.32967       21.81614       51.13378
H         48.20200       20.12196       50.55192
H         46.40755       20.00016       53.83344
H         47.76892       19.34916       52.86234
H         47.85107       21.03164       53.50032
N         45.44448       23.83642       50.29182
C         44.92861       24.37168       49.03250
C         45.97564       24.20502       47.94894
O         47.00231       23.59959       48.21898
C         44.40425       25.82902       49.16642
C         45.44977       26.92447       49.20661
N         46.26117       27.10253       50.26921
O         45.53314       27.69549       48.26121
H         46.20052       24.34343       50.76615
H         44.04821       23.77530       48.70688
H         43.71533       25.91829       50.03311
H         43.78802       26.02334       48.26183
H         46.18260       26.50749       51.09987
H         46.95044       27.87002       50.27142
N         45.78664       24.68026       46.68938
C         46.76641       24.49559       45.62472
C         48.12448       25.09256       45.98485
O         49.12002       24.39232       45.86789
C         46.26923       25.12541       44.30685
C         47.28122       24.88696       43.21059
C         47.55803       23.58061       42.77011
C         47.98897       25.96420       42.65464
C         48.53604       23.35612       41.79859
C         48.97059       25.73649       41.68665
C         49.25022       24.43018       41.25846
O         50.20476       24.19531       40.33632
H         44.91066       25.18153       46.47428
H         46.88983       23.40239       45.45366
H         46.11839       26.21563       44.46984
H         45.29083       24.69051       44.00664
H         47.02454       22.73462       43.18566
H         47.79821       26.97731       42.98667
H         48.74585       22.34459       41.47402
H         49.51953       26.57514       41.27836
H         50.73372       24.90854       39.95169
N         48.23761       26.38749       46.40336
C         49.52401       27.04750       46.66429
C         50.34811       26.40577       47.78268
O         51.47398       26.83875       47.98906
C         49.31487       28.53879       47.00698
C         48.66967       29.33136       45.86026
C         48.51961       30.77414       46.24496
O         49.08225       31.64442       45.60031
O         47.75758       31.11547       47.30213
H         47.36801       26.92862       46.50165
H         50.13183       26.98569       45.73403
H         50.30536       29.00354       47.21316
H         48.69334       28.61737       47.92705
H         47.66378       28.93631       45.61317
H         49.31000       29.24769       44.95435
N         49.88546       25.35979       48.51631
C         50.65719       24.66407       49.53475
C         51.11929       23.33558       48.96293
O         52.30412       23.04584       49.04958
C         49.81636       24.51482       50.81456
C         49.40364       25.89479       51.34950
C         48.58654       25.79569       52.59684
O         48.91187       26.52697       53.67450
O         47.59265       25.09532       52.62544
H         48.94392       25.00433       48.33927
H         51.57172       25.23460       49.81376
H         50.40284       23.97238       51.58852
H         48.89884       23.93224       50.58520
H         48.79190       26.40392       50.58119
H         50.29880       26.51947       51.55076
N         50.26472       22.52764       48.27073
C         50.68054       21.32494       47.57838
H         51.75239       21.08892       47.74146
H         50.06578       20.46776       47.91916
H         50.52236       21.46538       46.48621
H         49.28134       22.79797       48.16453
Ca        45.80048       25.24056       54.66050
O         45.21537       27.94600       53.34698
H         45.87652       28.66396       53.18086
H         44.61582       27.97211       52.55942

Ca 1.0



