%chk=holoCaM-CaMKII.loop1.water2.frame377.chk
%nprocshared=20
%mem=10GB
%nosave
#b3lyp/svp scf=(tight,noincore,xqc) Test 
#IOP(5/87=12) Density=Current Pop=(MK,readradii) iop(6/33=2) iop(6/42=6)

holoCaM-CaMKII.loop1.water2.frame377 

   0  1 
C         66.90649       68.11859       63.98897
C         67.78169       68.35103       65.18333
O         67.60527       69.34626       65.86412
H         66.16749       68.93967       63.87427
H         67.53477       68.06961       63.07488
H         66.36083       67.15879       64.10893
N         68.73272       67.43449       65.50680
C         69.64055       67.53164       66.64901
C         70.73579       68.57321       66.38084
O         71.83948       68.19641       66.00826
C         70.24689       66.12796       66.88132
C         71.07000       66.04443       68.12570
O         71.20448       67.10767       68.93815
O         71.60099       64.98875       68.41705
H         68.77609       66.58573       64.91935
H         69.06550       67.77699       67.57069
H         70.86628       65.82984       66.00634
H         69.42221       65.38933       66.98840
N         70.47991       69.90909       66.47375
C         71.39930       70.91818       65.95175
C         72.64585       71.16402       66.81247
O         73.51038       71.89361       66.34888
C         70.59771       72.21242       65.65740
C         71.26645       73.24829       64.72883
C         71.64272       72.64786       63.35734
C         71.97543       73.69818       62.28664
N         73.11223       74.54151       62.65170
H         69.54704       70.20894       66.78057
H         71.73409       70.52790       64.96928
H         70.29519       72.69352       66.61318
H         69.66312       71.91012       65.13166
H         72.15548       73.70515       65.20889
H         70.51483       74.05248       64.56878
H         70.77901       72.06580       62.96720
H         72.50719       71.95955       63.47137
H         71.08250       74.33520       62.10149
H         72.21109       73.16033       61.34057
H         72.88110       75.12193       63.48902
H         73.95507       73.95257       62.84036
H         73.31913       75.18565       61.85417
N         72.83578       70.58659       68.04164
C         74.07138       70.75502       68.82665
C         74.82502       69.43885       69.00901
O         75.88472       69.45564       69.62020
C         73.79109       71.41996       70.19779
C         73.00090       70.57853       71.16191
O         72.57356       69.35561       70.81249
O         72.66076       71.04821       72.23596
H         72.09264       69.98769       68.42313
H         74.76411       71.43973       68.29244
H         73.24432       72.37210       70.01973
H         74.75553       71.66888       70.69093
N         74.35727       68.26401       68.49818
C         75.05880       67.00021       68.62340
C         75.11663       66.50671       70.05071
O         76.20085       66.25708       70.55611
H         73.48197       68.24918       67.96124
H         76.07634       67.09388       68.18668
H         74.50803       66.23213       68.03657
N         73.96126       66.29381       70.73728
C         73.87547       65.68589       72.06050
C         73.07044       64.38390       72.00104
O         72.68377       63.87236       73.04274
C         73.30844       66.70015       73.08411
C         71.90536       67.20001       72.85997
O         71.38555       68.08676       73.72886
O         71.23365       66.83071       71.91309
H         73.08072       66.53702       70.27331
H         74.88597       65.42208       72.44223
H         73.98251       67.58383       73.09997
H         73.33917       66.23479       74.09295
N         72.84491       63.75374       70.80864
C         72.12752       62.49732       70.66198
C         70.62173       62.58842       70.84013
O         69.98745       61.55247       70.69016
H         73.27637       64.12860       69.95422
H         72.55510       61.74413       71.36004
H         72.29256       62.12275       69.62815
N         69.96944       63.74415       71.17351
C         68.52412       63.79859       71.41370
C         67.85202       64.98224       70.71848
O         68.53831       65.84553       70.18631
C         68.25574       63.85279       72.93803
C         68.77828       62.60080       73.66042
O         68.79947       65.01646       73.51199
H         70.51840       64.59367       71.33944
H         68.04310       62.87777       71.01565
H         67.15800       63.87611       73.10458
H         69.78790       64.92428       73.52667
H         69.88137       62.51155       73.56331
H         68.52876       62.65801       74.74012
H         68.30809       61.68915       73.23420
N         66.48431       65.06095       70.67513
C         65.73561       66.16210       70.06495
C         64.68550       66.66824       71.05848
O         63.79559       65.90685       71.41521
C         65.04022       65.68757       68.74886
C         66.07980       65.12359       67.74569
C         64.24746       66.84442       68.10252
C         65.44686       64.51169       66.49247
H         65.93998       64.27623       71.06649
H         66.42863       66.98664       69.79285
H         64.32842       64.87229       69.00873
H         66.65513       64.30964       68.23379
H         66.79324       65.92251       67.44572
H         63.68097       66.50972       67.21255
H         63.48932       67.24053       68.79925
H         64.93106       67.66688       67.80469
H         66.24232       64.08016       65.85037
H         64.74224       63.70130       66.77803
H         64.90992       65.26876       65.88718
N         64.71523       67.94539       71.53518
C         63.69206       68.50527       72.41786
C         62.45311       68.88198       71.60900
O         62.47418       68.77743       70.39373
C         64.22897       69.76915       73.15628
C         65.47830       69.46965       73.98938
O         64.53071       70.77737       72.23111
H         65.48670       68.55062       71.25446
H         63.43206       67.75368       73.19578
H         63.43506       70.13002       73.84914
H         64.61370       71.62659       72.73915
H         65.79619       70.38617       74.53131
H         65.27486       68.66971       74.72999
H         66.31396       69.16348       73.33275
N         61.34554       69.38395       72.22044
C         60.20243       69.92410       71.48007
C         60.63693       71.11816       70.64148
O         60.27596       71.20270       69.47637
C         59.06895       70.37101       72.44071
C         58.44007       69.17393       73.16209
O         59.55513       71.29867       73.37848
H         61.33877       69.43087       73.25000
H         59.77166       69.14838       70.80685
H         58.27203       70.84816       71.82150
H         58.76529       71.73433       73.79310
H         58.02833       68.45750       72.41934
H         59.18290       68.64997       73.79735
H         57.60474       69.52147       73.80621
N         61.42316       72.07979       71.19694
C         61.83920       73.30892       70.52597
C         62.57821       73.00270       69.23500
O         62.21484       73.53178       68.19409
C         62.73163       74.17543       71.45805
C         62.13945       74.46130       72.86036
C         60.74565       75.10342       72.83511
C         60.19656       75.25224       74.26164
N         58.87200       75.87092       74.25389
H         61.74149       71.90961       72.15765
H         60.93651       73.90710       70.27607
H         62.93288       75.14200       70.94624
H         63.70840       73.66910       71.61775
H         62.84090       75.12647       73.40921
H         62.08533       73.52414       73.44867
H         60.03818       74.45669       72.27488
H         60.80512       76.09470       72.33670
H         60.88923       75.87180       74.87242
H         60.12243       74.24418       74.73068
H         58.51601       75.92723       75.23550
H         58.93223       76.83693       73.85829
H         58.20693       75.29616       73.68668
N         63.60127       72.10665       69.23499
C         64.34436       71.69867       68.04654
C         63.40298       71.18885       66.97427
O         63.46485       71.68837       65.85925
C         65.40106       70.63242       68.41507
C         66.49150       71.25581       69.29675
C         67.59393       70.30843       69.63261
O         68.84684       70.62294       69.30379
O         67.39384       69.30863       70.29318
H         63.82766       71.65910       70.12954
H         64.88845       72.57373       67.62403
H         65.88152       70.26245       67.48654
H         64.92251       69.77136       68.93233
H         66.06805       71.63051       70.24949
H         66.93771       72.11865       68.75663
N         62.46765       70.24142       67.25326
C         61.49472       69.77514       66.28609
H         60.47567       70.04375       66.63734
H         61.64249       70.22747       65.28254
H         61.56610       68.67294       66.19034
H         62.40805       69.86334       68.20629
Ca        70.41695       69.49257       70.38907
O         69.16003       71.16864       72.51515
H         69.76624       71.89179       72.21448
H         68.46196       71.62987       73.04375
O         68.54681       67.96093       73.07899
H         68.46313       67.88516       74.06314
H         67.85195       67.35251       72.72241

Ca 1.0



