%chk=holoCaM-CaMKII.loop3.water2.frame140.chk
%nprocshared=20
%mem=10GB
%nosave
#b3lyp/svp scf=(tight,noincore,xqc) Test 
#IOP(5/87=12) Density=Current Pop=(MK,readradii) iop(6/33=2) iop(6/42=6)

holoCaM-CaMKII.loop3.water2.frame140 

   0  1 
C         22.00802       17.25547       76.46056
C         23.27700       16.79545       77.11815
O         23.27028       15.76033       77.75880
H         21.22710       17.42793       77.23042
H         22.16343       18.20177       75.89957
H         21.65625       16.48005       75.74838
N         24.41059       17.53432       77.01848
C         25.68790       17.16607       77.61581
C         25.94302       18.15377       78.73135
O         26.87189       18.94710       78.67830
C         26.72388       17.14222       76.47851
C         28.15336       16.84210       76.82641
O         29.01509       17.63620       76.48638
O         28.54555       15.66723       77.35019
H         24.36819       18.42977       76.50687
H         25.65914       16.15362       78.07862
H         26.69792       18.12456       75.95997
H         26.40752       16.37158       75.74756
N         25.07637       18.15378       79.78443
C         25.14984       19.06312       80.92149
C         26.42808       18.78771       81.69489
O         27.23909       19.68685       81.86451
C         23.90888       18.89474       81.84297
C         22.57427       19.11533       81.09446
C         21.36404       18.97578       82.03015
C         20.01943       18.97549       81.27542
N         19.79378       20.20372       80.51221
H         24.32012       17.45508       79.76394
H         25.13870       20.11310       80.55078
H         23.98312       19.63065       82.67406
H         23.89442       17.87443       82.28345
H         22.45884       18.35765       80.29407
H         22.57489       20.12349       80.62933
H         21.38108       19.79186       82.78454
H         21.43035       18.00383       82.56700
H         19.20215       18.85527       82.02089
H         19.97810       18.10212       80.58608
H         20.48363       20.28248       79.73132
H         18.83689       20.16817       80.09165
H         19.85942       21.03784       81.13862
N         26.67934       17.52520       82.14992
C         27.90009       17.11626       82.85559
C         29.18059       17.37633       82.05670
O         30.24518       17.36942       82.65854
C         27.79413       15.63027       83.29695
C         27.47960       14.73853       82.12606
O         26.32325       14.42392       81.88916
O         28.42549       14.48373       81.21690
H         25.94675       16.82415       81.97827
H         27.97191       17.74229       83.77205
H         26.95545       15.55359       84.02109
H         28.71557       15.28307       83.81329
N         29.15773       17.66614       80.72512
C         30.31063       18.14308       79.98034
C         31.46531       17.17410       79.91236
O         32.55611       17.54745       80.32087
H         28.26897       17.61537       80.21530
H         30.65306       19.10116       80.43216
H         29.99777       18.36668       78.93834
N         31.31827       15.93910       79.35131
C         32.44505       15.03171       79.12065
C         32.66340       14.72573       77.63496
O         33.66146       14.08761       77.32719
C         32.30221       13.73782       79.95661
C         31.12898       12.84889       79.61128
N         30.95455       11.67859       80.26468
O         30.33650       13.16705       78.74322
H         30.37634       15.65401       79.05699
H         33.38349       15.51884       79.46491
H         32.22612       14.01656       81.02995
H         33.22888       13.13774       79.82587
H         31.61365       11.38252       80.99868
H         30.16138       11.06326       80.02931
N         31.79443       15.13436       76.66059
C         31.99911       14.90756       75.23658
C         30.98530       13.95637       74.61922
O         31.02749       13.78358       73.41273
H         30.94322       15.64452       76.91760
H         33.00656       14.48731       75.02979
H         31.93723       15.89233       74.72476
N         30.09190       13.25997       75.38299
C         29.16708       12.25743       74.85035
C         27.74494       12.54238       75.30908
O         27.54098       13.39440       76.15306
C         29.55395       10.88621       75.44819
C         30.95157       10.44720       75.10172
C         31.25907        9.98908       73.81103
C         31.95539       10.46347       76.08475
C         32.55131        9.54200       73.51321
C         33.24772       10.03168       75.78120
C         33.54916        9.56282       74.49495
O         34.78928        9.12779       74.19413
H         30.10221       13.38903       76.39700
H         29.20199       12.22771       73.74077
H         28.85050       10.08104       75.14265
H         29.47014       10.98066       76.55351
H         30.49454        9.95644       73.04453
H         31.74004       10.81633       77.08602
H         32.77619        9.17316       72.52035
H         34.01072       10.05626       76.54892
H         35.50377        9.12185       74.84735
N         26.71944       11.76442       74.84521
C         25.41883       11.70931       75.52069
C         24.88184       10.27798       75.53394
O         25.38101        9.41601       74.83360
C         24.36699       12.69693       74.92892
C         24.07094       12.39842       73.43790
C         24.79904       14.15338       75.14577
C         22.92338       13.23594       72.86586
H         26.94928       11.05072       74.14320
H         25.57467       11.95906       76.59189
H         23.42405       12.56076       75.50348
H         23.77149       11.33385       73.33384
H         24.98517       12.56368       72.82769
H         23.99691       14.86107       74.85579
H         25.00188       14.32708       76.22316
H         25.70781       14.38697       74.55465
H         21.99471       13.06794       73.45275
H         23.16670       14.31737       72.86394
H         22.73590       12.93474       71.81392
N         23.83429        9.97966       76.35291
C         23.17757        8.67805       76.40154
C         21.70246        8.85800       76.07092
O         21.28209        9.96749       75.80257
C         23.37461        8.06425       77.79767
O         22.79461        8.87553       78.78110
H         23.48010       10.71299       76.97345
H         23.61908        7.97962       75.65977
H         24.46613        7.96348       77.99236
H         22.91509        7.05150       77.82793
H         22.89259        8.38452       79.63788
N         20.85120        7.79320       76.07329
C         19.41773        7.93260       75.82238
C         18.76226        8.80721       76.87821
O         18.06969        9.75187       76.52277
C         18.74846        6.55544       75.81651
H         21.23360        6.85825       76.26933
H         19.25650        8.37556       74.81382
H         18.87176        6.04707       76.79588
H         17.66391        6.66405       75.59896
H         19.20084        5.92301       75.02335
N         18.96394        8.55656       78.20311
C         18.36820        9.33197       79.28977
C         18.65048       10.81295       79.14576
O         17.71826       11.60281       79.19536
C         18.91034        8.84286       80.63899
H         19.59624        7.77819       78.45012
H         17.26596        9.17898       79.29086
H         18.67284        7.76706       80.77781
H         20.01359        8.97242       80.69109
H         18.44547        9.41462       81.47070
N         19.91882       11.25251       78.92957
C         20.26704       12.66034       78.76221
C         19.44873       13.28578       77.64393
O         18.77354       14.27650       77.88803
C         21.76924       12.80441       78.45842
C         22.65880       12.36607       79.63662
C         24.11728       12.44530       79.28816
O         24.87700       11.33504       79.33697
O         24.62538       13.50926       78.97460
H         20.65845       10.54040       78.84579
H         20.05056       13.21437       79.70339
H         21.97884       13.86435       78.24456
H         22.00612       12.21974       77.54920
H         22.43451       11.32038       79.92685
H         22.45870       13.01727       80.51432
N         19.43414       12.74062       76.39896
C         18.63675       13.28274       75.32195
H         17.56422       13.29172       75.61243
H         18.96953       14.31459       75.08465
H         18.74957       12.65079       74.41491
H         19.98528       11.89693       76.21400
Ca        27.79295       14.45023       79.07145
O         27.03236       11.38531       81.57966
H         26.66003       10.48467       81.40625
H         26.40190       11.79011       82.22672
O         27.74086       10.27452       78.52441
H         27.84708        9.49044       77.92951
H         27.17174       10.89797       78.00884

Ca 1.0



