%chk=holoCaM.loop2.water3.frame427.chk
%nprocshared=20
%mem=10GB
%nosave
#b3lyp/svp scf=(tight,noincore,xqc) Test 
#IOP(5/87=12) Density=Current Pop=(MK,readradii) iop(6/33=2) iop(6/42=6)

holoCaM.loop2.water3.frame427 

   -2  1 
C        -12.45182      115.07398       45.92816
C        -11.95795      116.42087       46.34829
O        -11.21176      116.49948       47.31483
H        -13.12904      115.14953       45.05206
H        -11.58845      114.43003       45.66149
H        -13.00943      114.61627       46.77134
N        -12.32493      117.53843       45.66231
C        -11.86867      118.85863       46.05621
C        -12.44265      119.20394       47.41631
O        -13.65570      119.15212       47.56670
C        -12.23233      119.90935       44.98831
C        -11.44619      121.16832       45.20767
O        -11.42695      122.02517       44.34595
O        -10.63584      121.25889       46.28055
H        -12.92361      117.44215       44.82737
H        -10.75986      118.82330       46.09819
H        -13.32611      120.09924       44.93011
H        -11.89452      119.51503       44.00343
N        -11.62703      119.53796       48.45964
C        -12.11479      119.69966       49.82330
C        -12.13915      121.14256       50.29800
O        -12.71019      121.37385       51.35512
C        -11.27803      118.82120       50.75635
H        -10.61784      119.64113       48.29004
H        -13.16978      119.35437       49.87818
H        -11.66318      118.86945       51.79581
H        -11.31324      117.76516       50.41208
H        -10.21745      119.15705       50.74890
N        -11.59464      122.16755       49.57894
C        -11.77542      123.57435       49.93974
C        -12.47161      124.35685       48.82379
O        -12.71176      125.54198       49.00844
C        -10.44284      124.20516       50.39499
C         -9.35184      124.28572       49.36861
O         -8.15683      124.78842       49.73091
O         -9.52815      123.92008       48.21964
H        -11.05377      121.95214       48.73159
H        -12.44503      123.65748       50.82385
H        -10.06328      123.61118       51.25475
H        -10.63872      125.23733       50.75908
N        -12.88748      123.75220       47.66954
C        -13.67762      124.42032       46.65208
C        -12.94352      125.52430       45.93093
O        -13.42201      126.64943       45.95006
H        -12.72170      122.74850       47.51886
H        -14.60843      124.81266       47.11854
H        -13.98122      123.67394       45.88522
N        -11.81571      125.25834       45.20871
C        -11.16011      126.25047       44.35206
C        -11.18969      125.84805       42.87411
O        -10.74710      126.63812       42.05197
C         -9.70737      126.50174       44.80596
C         -8.78313      125.36038       44.46189
N         -7.72448      125.54701       43.63978
O         -8.99736      124.25417       44.91803
H        -11.44049      124.30278       45.24426
H        -11.69850      127.21837       44.43976
H         -9.68466      126.69489       45.90062
H         -9.33653      127.41701       44.29719
H         -7.52427      126.47037       43.23043
H         -7.09943      124.76197       43.41005
N        -11.66401      124.63340       42.46546
C        -11.71686      124.19650       41.08255
C        -10.85075      122.97907       40.80408
O        -11.08623      122.35080       39.78145
H        -12.03409      123.97007       43.15084
H        -11.42269      124.99540       40.36881
H        -12.77612      123.93945       40.86443
N         -9.77106      122.64338       41.57988
C         -8.85588      121.54737       41.23120
C         -8.57857      120.62704       42.41301
O         -8.99659      120.92314       43.52141
C         -7.50625      122.13101       40.73877
C         -7.68324      123.05638       39.53254
O         -6.88662      122.83789       41.78154
H         -9.53104      123.23940       42.38572
H         -9.28774      120.93142       40.41209
H         -6.85507      121.28244       40.42482
H         -5.91678      122.87642       41.57244
H         -8.29761      123.94142       39.80201
H         -6.68941      123.41598       39.19139
H         -8.16967      122.51114       38.69703
N         -7.81145      119.50839       42.24227
C         -7.33385      118.67559       43.34292
C         -5.81296      118.70466       43.36741
O         -5.19187      118.59106       42.31882
C         -7.89777      117.22104       43.31080
C         -7.44588      116.39234       42.08245
C         -9.43023      117.25906       43.44417
C         -7.88613      114.92591       42.15668
H         -7.50578      119.26043       41.28914
H         -7.67831      119.09246       44.31013
H         -7.50202      116.71027       44.21837
H         -6.33754      116.37914       42.04357
H         -7.82926      116.84319       41.14322
H         -9.89564      117.73393       42.55533
H         -9.85588      116.24475       43.58014
H         -9.70956      117.83694       44.34442
H         -8.98892      114.82388       42.11745
H         -7.46775      114.36545       41.29488
H         -7.51288      114.46252       43.09319
N         -5.14671      118.80586       44.55202
C         -3.68935      118.79137       44.66866
C         -3.25620      117.40161       45.11792
O         -4.12323      116.56274       45.28472
C         -3.27957      119.93448       45.62446
C         -1.79883      120.15990       45.72313
O         -1.17961      120.08241       46.91615
O         -1.15357      120.44534       44.72704
H         -5.69701      118.81036       45.42526
H         -3.22257      118.96747       43.67443
H         -3.70148      119.73703       46.63476
H         -3.72133      120.88108       45.24852
N         -1.94901      117.04540       45.27720
C         -1.54951      115.67510       45.59844
C         -2.19078      115.16148       46.89015
O         -2.75389      114.07757       46.83296
C         -0.00889      115.51699       45.60513
C          0.42345      114.07238       45.75747
C          0.05203      113.10972       44.79879
C          1.21369      113.67404       46.85061
C          0.45605      111.77861       44.93682
C          1.61790      112.34058       46.98247
C          1.23825      111.39397       46.02749
H         -1.21198      117.74513       45.11699
H         -1.91496      115.03150       44.76765
H          0.44178      116.13511       46.40325
H          0.39690      115.88846       44.63915
H         -0.54760      113.38534       43.94123
H          1.51901      114.39270       47.60054
H          0.16417      111.04536       44.19568
H          2.22709      112.04005       47.82511
H          1.55181      110.36289       46.13073
N         -2.19096      115.85458       48.07576
C         -2.82602      115.37819       49.30269
C         -4.24964      114.89115       49.09231
O         -4.57127      113.77867       49.48471
C         -2.82233      116.61540       50.21619
C         -1.55555      117.31210       49.78649
C         -1.62667      117.17455       48.27019
H         -2.19340      114.57064       49.73457
H         -3.65156      117.30658       49.94201
H         -2.90738      116.38973       51.30019
H         -1.43865      118.35621       50.14746
H         -0.69804      116.70384       50.15396
H         -2.32200      117.91720       47.82482
H         -0.60668      117.30294       47.86787
N         -5.14655      115.68628       48.44873
C         -6.53545      115.32235       48.18198
C         -6.60286      114.05390       47.34638
O         -7.25642      113.10900       47.76511
C         -7.25256      116.50943       47.49687
C         -7.37367      117.69581       48.48310
C         -7.95959      118.93939       47.88611
O         -8.27629      118.99117       46.71060
O         -8.12321      120.02450       48.66599
H         -4.80673      116.59960       48.11044
H         -7.06721      115.12719       49.14076
H         -8.27741      116.21223       47.18366
H         -6.68319      116.80925       46.58970
H         -6.37921      117.97840       48.88382
H         -8.01579      117.38376       49.33530
N         -5.90806      113.94521       46.18228
C         -5.86381      112.74770       45.36933
H         -4.81854      112.37280       45.33239
H         -6.51405      111.94127       45.76546
H         -6.18432      112.98898       44.33676
H         -5.34402      114.73574       45.87030
Ca        -8.55585      122.09514       46.34520
O         -5.98996      121.95637       48.02921
H         -5.03828      122.21997       48.09227
H         -6.35138      122.10476       48.93915
O         -6.60203      124.79602       46.59265
H         -5.61653      124.77132       46.67157
H         -6.92631      124.69153       47.51996
O         -6.05539      122.22309       44.87171
H         -5.36751      122.90644       44.67358
H         -5.99854      121.58408       44.11863

Ca 1.0



