%chk=holoCaM-CaMKII.loop3.water2.frame31.chk
%nprocshared=20
%mem=10GB
%nosave
#b3lyp/svp scf=(tight,noincore,xqc) Test 
#IOP(5/87=12) Density=Current Pop=(MK,readradii) iop(6/33=2) iop(6/42=6)

holoCaM-CaMKII.loop3.water2.frame31 

   0  1 
C         19.55986       81.21416       28.30499
C         19.03316       82.59409       28.06895
O         18.25591       82.77047       27.14033
H         20.26128       81.19034       29.16417
H         18.71171       80.52865       28.51395
H         20.09355       80.86877       27.39509
N         19.40052       83.63129       28.87445
C         18.88560       84.97161       28.66309
C         19.74894       85.68595       27.64758
O         20.93174       85.89382       27.88250
C         18.80284       85.74132       29.97595
C         18.05887       87.03232       29.82189
O         17.88307       87.71155       30.81354
O         17.55717       87.45320       28.63650
H         20.04015       83.45862       29.66553
H         17.83141       84.88189       28.31037
H         19.81963       85.93349       30.38348
H         18.23863       85.12806       30.71248
N         19.20683       86.03456       26.45749
C         19.96808       86.58110       25.34726
C         20.45950       87.99613       25.61936
O         21.63529       88.25913       25.41035
C         19.09719       86.52445       24.07599
C         19.93419       86.45543       22.79413
C         19.01677       86.25821       21.58168
C         19.81486       85.87457       20.33170
N         18.92358       85.69826       19.18607
H         18.21763       85.79457       26.30548
H         20.82902       85.89602       25.17215
H         18.35546       87.35198       24.05867
H         18.53757       85.56190       24.09465
H         20.59821       85.56523       22.87952
H         20.56818       87.35885       22.66466
H         18.43476       87.18963       21.41083
H         18.30447       85.42706       21.78424
H         20.34892       84.91585       20.52599
H         20.56965       86.65710       20.10112
H         19.48326       85.38622       18.36032
H         18.20058       84.97161       19.39710
H         18.45476       86.60494       18.95910
N         19.61155       88.95415       26.10555
C         20.00068       90.35067       26.31365
C         20.28667       90.67958       27.77284
O         20.69360       91.80195       28.04237
C         18.93115       91.28787       25.70890
C         17.59803       91.18467       26.40210
O         17.47743       91.54953       27.69211
O         16.61514       90.79632       25.79169
H         18.65264       88.67535       26.35815
H         20.95429       90.55013       25.77777
H         18.81016       91.03309       24.63373
H         19.26741       92.34525       25.77320
N         20.14887       89.75427       28.76252
C         20.53466       90.00718       30.13796
C         19.73144       91.10343       30.79945
O         20.32502       92.06723       31.26193
H         19.81760       88.80765       28.53621
H         21.61859       90.25514       30.16902
H         20.39046       89.07726       30.73070
N         18.38411       90.97070       30.96019
C         17.57503       91.87710       31.77657
C         17.15778       91.18459       33.08292
O         16.53417       91.83557       33.90936
C         16.33988       92.40152       30.97685
C         15.15395       91.41901       30.95206
N         14.06554       91.78294       30.06182
O         15.54885       90.10219       30.79377
H         17.94349       90.13676       30.56156
H         18.19198       92.76190       32.04585
H         16.65861       92.68620       29.95210
H         15.94716       93.31566       31.47170
H         13.64497       92.66593       30.42965
H         13.32637       91.04840       30.16143
N         17.44076       89.86020       33.31968
C         17.03338       89.11971       34.50598
C         16.00908       88.02002       34.20643
O         15.58655       87.36019       35.14254
H         17.96429       89.31560       32.62661
H         16.57263       89.80237       35.25035
H         17.94006       88.67542       34.97077
N         15.50768       87.82410       32.94989
C         14.36626       86.96962       32.61738
C         14.61718       86.12135       31.37347
O         15.27867       86.57645       30.45582
C         13.17300       87.89394       32.29629
C         12.65510       88.60374       33.52111
C         12.79243       89.99359       33.67269
C         11.99602       87.86623       34.51783
C         12.27741       90.63223       34.80633
C         11.47174       88.50664       35.64197
C         11.60988       89.89352       35.79018
O         11.10114       90.52455       36.86751
H         15.87080       88.39983       32.19671
H         14.08546       86.30592       33.46303
H         12.32381       87.31482       31.87239
H         13.49016       88.62482       31.52012
H         13.29807       90.58302       32.92014
H         11.87099       86.79558       34.41299
H         12.38982       91.70355       34.91668
H         10.95335       87.92370       36.39263
H         10.61767       90.05027       37.55933
N         13.95004       84.93853       31.21632
C         13.99340       84.11728       30.00303
C         12.59512       84.07534       29.39501
O         11.65540       83.74652       30.10436
C         14.44808       82.66286       30.33178
C         15.83124       82.64062       31.02765
C         14.47544       81.81150       29.03819
C         16.21357       81.24737       31.54092
H         13.34188       84.61849       31.98482
H         14.70939       84.53663       29.26110
H         13.70412       82.22389       31.03377
H         15.80449       83.30517       31.91677
H         16.61734       83.01632       30.33657
H         15.21362       82.22384       28.31599
H         14.72599       80.75368       29.24352
H         13.48115       81.79156       28.54793
H         17.18273       81.30002       32.07806
H         15.43904       80.87720       32.24746
H         16.33056       80.51648       30.71655
N         12.40170       84.32620       28.06533
C         11.09699       84.22618       27.40879
C         11.09349       83.09549       26.38931
O         12.10421       82.43729       26.21796
C         10.73763       85.56522       26.73922
O         11.56960       85.83538       25.64252
H         13.21980       84.54570       27.48329
H         10.30743       84.00279       28.15738
H         10.76946       86.39700       27.47706
H          9.69298       85.53115       26.36646
H         12.42505       86.17417       26.00561
N          9.96213       82.80741       25.68484
C          9.87661       81.74836       24.68062
C         10.77751       82.02327       23.48892
O         11.55200       81.15110       23.12049
C          8.43139       81.60779       24.19103
H          9.11468       83.35783       25.88675
H         10.15335       80.77426       25.14360
H          8.35905       80.78276       23.44977
H          7.76865       81.36298       25.04829
H          8.07491       82.54834       23.72020
N         10.72256       83.21997       22.83584
C         11.52665       83.54642       21.65821
C         13.00252       83.32019       21.91374
O         13.63977       82.62575       21.13418
C         11.29012       85.00431       21.24396
H         10.08265       83.94014       23.20679
H         11.21065       82.90144       20.80763
H         11.58903       85.70059       22.05703
H         11.87942       85.24493       20.33286
H         10.21512       85.16512       21.01496
N         13.59601       83.83972       23.02261
C         14.99766       83.61309       23.37038
C         15.28244       82.11944       23.42757
O         16.18930       81.66271       22.74494
C         15.34334       84.31410       24.70806
C         15.21528       85.84728       24.57436
C         15.53746       86.57554       25.84799
O         14.83970       86.33508       26.97148
O         16.40434       87.43214       25.85791
H         13.00042       84.37823       23.66826
H         15.65392       84.05426       22.58632
H         16.39257       84.07266       24.98761
H         14.67260       83.93796       25.51231
H         14.18348       86.12848       24.28898
H         15.89870       86.19762       23.76944
N         14.49752       81.28713       24.16115
C         14.67030       79.85067       24.16288
H         15.66300       79.58407       24.57942
H         13.87808       79.37587       24.78140
H         14.58083       79.45728       23.12659
H         13.71926       81.68068       24.69755
Ca        16.26218       89.28393       28.81555
O         13.71054       90.56063       27.27281
H         14.13321       91.35173       26.85503
H         12.88084       90.91229       27.68320
O         12.88204       87.99796       28.76476
H         12.33999       88.27035       27.98249
H         12.24167       87.53075       29.35729

Ca 1.0



