%chk=holoCaM.loop1.water2.frame44.chk
%nprocshared=20
%mem=10GB
%nosave
#b3lyp/svp scf=(tight,noincore,xqc) Test 
#IOP(5/87=12) Density=Current Pop=(MK,readradii) iop(6/33=2) iop(6/42=6)

holoCaM.loop1.water2.frame44 

   0  1 
C         -6.37292       90.43149       15.50906
C         -6.81531       91.77207       16.01216
O         -7.12665       91.88397       17.18937
H         -5.47167       90.10496       16.06853
H         -7.18787       89.69381       15.66355
H         -6.12694       90.46566       14.42699
N         -6.85787       92.84694       15.17531
C         -7.28010       94.16890       15.61796
C         -8.74493       94.11601       16.03141
O         -9.60164       93.93385       15.17699
C         -7.02537       95.18673       14.48484
C         -7.34991       96.60526       14.82755
O         -7.14771       97.47703       14.00234
O         -7.85708       96.93382       16.02353
H         -6.55682       92.71930       14.19633
H         -6.64269       94.45556       16.48358
H         -7.61469       94.90133       13.58661
H         -5.94493       95.14931       14.22315
N         -9.08939       94.17256       17.35026
C        -10.45332       93.96746       17.81792
C        -11.32650       95.17965       17.51644
O        -12.27858       95.05363       16.75972
C        -10.44188       93.63469       19.33660
C        -11.81708       93.27916       19.93196
C        -12.38619       91.96454       19.37449
C        -13.74273       91.63389       20.00897
N        -14.26888       90.37315       19.48542
H         -8.33625       94.23548       18.04785
H        -10.84702       93.07222       17.29183
H        -10.03040       94.49708       19.90231
H         -9.75514       92.77795       19.51839
H        -12.52846       94.11549       19.76231
H        -11.68882       93.15632       21.03045
H        -11.67108       91.13923       19.58853
H        -12.52956       92.04013       18.27792
H        -14.46112       92.45303       19.78295
H        -13.63476       91.55481       21.11377
H        -15.20775       90.19128       19.90787
H        -14.37139       90.42799       18.44583
H        -13.62707       89.58557       19.73453
N        -11.08816       96.37543       18.13100
C        -11.96469       97.54447       18.00574
C        -11.85803       98.26864       16.66520
O        -12.58811       99.23166       16.47380
C        -11.71132       98.51555       19.18678
C        -10.31479       99.07903       19.24528
O         -9.43949       98.85021       18.24823
O         -9.96182       99.71389       20.22572
H        -10.30778       96.41700       18.80229
H        -13.01527       97.19800       18.12825
H        -11.88170       97.93531       20.12135
H        -12.44414       99.35099       19.17421
N        -10.98882       97.87779       15.69051
C        -10.88126       98.55104       14.40666
C        -10.34253       99.95724       14.53849
O        -10.99525      100.89324       14.09963
H        -10.39006       97.05552       15.83865
H        -11.87070       98.54961       13.89909
H        -10.16998       97.98746       13.76455
N         -9.12239      100.16306       15.10559
C         -8.45572      101.46005       15.18434
C         -7.11926      101.42626       14.44231
O         -6.30877      102.32297       14.63558
C         -8.30700      101.90031       16.66110
C         -7.44834      101.03245       17.53934
O         -7.29094      101.36360       18.83454
O         -6.89629      100.03691       17.10691
H         -8.62226       99.34388       15.47603
H         -9.07024      102.25555       14.70793
H         -9.32163      101.94726       17.11221
H         -7.87959      102.92641       16.68479
N         -6.84983      100.45671       13.51636
C         -5.61649      100.39537       12.75290
C         -4.40765       99.91530       13.53812
O         -3.33814       99.89917       12.95060
H         -7.58127       99.77676       13.27013
H         -5.41650      101.39582       12.30880
H         -5.74646       99.67978       11.91182
N         -4.48218       99.48760       14.83835
C         -3.29986       99.05115       15.59186
C         -3.61529       97.95073       16.61497
O         -4.76472       97.60705       16.83303
C         -2.61153      100.25990       16.28594
C         -1.98587      101.26356       15.30925
O         -3.49852      100.91643       17.15531
H         -5.39391       99.46853       15.30321
H         -2.58498       98.57228       14.88657
H         -1.76261       99.88081       16.89268
H         -4.19654      101.35796       16.60346
H         -1.24494      100.75035       14.65954
H         -2.75474      101.75368       14.67868
H         -1.45871      102.05619       15.88110
N         -2.56887       97.31448       17.23093
C         -2.67578       96.18750       18.15932
C         -1.93189       96.52033       19.45884
O         -0.75238       96.83498       19.41559
C         -2.11859       94.91514       17.43184
C         -3.17825       94.46029       16.38301
C         -1.76701       93.76385       18.39282
C         -2.80668       93.22525       15.56311
H         -1.61450       97.59994       16.96961
H         -3.73431       95.97923       18.42690
H         -1.16402       95.18207       16.92516
H         -3.36713       95.28938       15.66877
H         -4.13473       94.23348       16.90561
H         -1.01454       94.08674       19.14139
H         -2.66010       93.38156       18.90660
H         -1.29594       92.92486       17.84140
H         -2.70204       92.32916       16.20859
H         -3.62576       93.01136       14.84264
H         -1.86740       93.39924       15.00016
N         -2.58195       96.42975       20.66184
C         -1.96815       96.70406       21.96658
C         -1.38225       95.43263       22.58367
O         -1.43278       94.38094       21.96586
C         -3.01970       97.30611       22.95692
C         -3.74386       98.53853       22.41718
O         -3.94420       96.33729       23.38939
H         -3.56431       96.13589       20.65148
H         -1.15712       97.45521       21.84227
H         -2.49037       97.65944       23.86453
H         -4.56878       96.14710       22.64802
H         -4.35445       98.26363       21.53676
H         -4.42775       98.93893       23.19590
H         -3.01225       99.32622       22.14146
N         -0.86290       95.46479       23.84853
C         -0.40797       94.29103       24.59866
C         -1.50523       93.23979       24.69642
O         -1.23905       92.08620       24.39171
C          0.04897       94.69094       26.02923
C          1.31320       95.55867       26.00338
O         -0.98408       95.37227       26.69703
H         -0.83512       96.37330       24.32885
H          0.46361       93.82785       24.08348
H          0.29669       93.75283       26.58015
H         -0.76713       95.35770       27.66544
H          1.62461       95.79584       27.04290
H          2.14122       95.00660       25.51058
H          1.14475       96.51304       25.46432
N         -2.76342       93.56794       25.10316
C         -3.86618       92.60921       25.17329
C         -4.12390       91.96990       23.81521
O         -4.12955       90.74995       23.72759
C         -5.14817       93.30482       25.69465
C         -5.02589       93.64329       27.19306
C         -6.27431       94.36312       27.72665
C         -6.29653       94.46571       29.26508
N         -5.15278       95.19856       29.81044
H         -2.95148       94.55325       25.34229
H         -3.61465       91.79230       25.88662
H         -6.01161       92.61099       25.58730
H         -5.36137       94.21576       25.09145
H         -4.13514       94.28007       27.37500
H         -4.89947       92.68552       27.74404
H         -7.18066       93.79037       27.43263
H         -6.34078       95.37553       27.27085
H         -6.31818       93.44234       29.70197
H         -7.23518       94.98147       29.56720
H         -4.26212       94.68635       29.62067
H         -5.11062       96.16120       29.40568
H         -5.26492       95.27090       30.84798
N         -4.34053       92.73560       22.71173
C         -4.64337       92.18466       21.38425
C         -3.50085       91.35272       20.81111
O         -3.72195       90.67031       19.81973
C         -4.96343       93.34006       20.40948
C         -6.21781       94.10115       20.84930
C         -6.34136       95.45506       20.22431
O         -6.35739       96.43736       20.94271
O         -6.54110       95.62458       18.91393
H         -4.30026       93.75605       22.83847
H         -5.53525       91.52463       21.47586
H         -5.10538       92.98511       19.36340
H         -4.09021       94.01625       20.43613
H         -6.19493       94.27928       21.94111
H         -7.12198       93.49264       20.63661
N         -2.25184       91.37271       21.35111
C         -1.16000       90.58400       20.82717
H         -0.23391       90.79654       21.40434
H         -1.39598       89.50332       20.92225
H         -0.97993       90.83942       19.76196
H         -2.05113       91.98179       22.14729
Ca        -7.61257       97.57831       18.58046
O         -7.36401       98.87640       21.49242
H         -7.38954       98.46027       22.39094
H         -7.32439       99.84895       21.66503
O         -4.33416       99.58514       19.45845
H         -5.12802       99.78430       18.90656
H         -4.30905      100.31919       20.12188

Ca 1.0



