%chk=holoCaM.loop4.water3.frame81.chk
%nprocshared=20
%mem=10GB
%nosave
#b3lyp/svp scf=(tight,noincore,xqc) Test 
#IOP(5/87=12) Density=Current Pop=(MK,readradii) iop(6/33=2) iop(6/42=6)

holoCaM.loop4.water3.frame81 

   -3  1 
C         -4.78575       12.98964       38.48931
C         -6.11146       12.80074       37.81640
O         -6.21038       11.91141       36.98603
H         -4.00728       13.23285       37.73810
H         -4.82726       13.79230       39.25356
H         -4.50876       12.04000       38.99900
N         -7.19370       13.55661       38.16846
C         -8.53957       13.27827       37.68413
C         -9.24594       14.52470       37.15018
O         -9.34832       15.49708       37.88571
C         -9.35131       12.73091       38.87458
C        -10.65907       12.14164       38.45235
O        -10.90252       11.97203       37.27091
O        -11.53930       11.72702       39.38186
H         -7.08044       14.27691       38.89790
H         -8.50573       12.49041       36.89954
H         -9.52281       13.54802       39.60854
H         -8.79020       11.92316       39.38809
N         -9.82277       14.53619       35.90866
C        -10.62689       15.65322       35.39386
C        -12.07338       15.23194       35.02889
O        -12.84828       16.09535       34.64451
C         -9.86164       16.30622       34.19080
C        -10.39923       17.69248       33.74624
C         -9.80630       15.37711       32.96149
C        -10.33630       18.75448       34.84650
H         -9.69133       13.71178       35.31209
H        -10.71238       16.41186       36.19373
H         -8.81356       16.47736       34.52569
H        -11.43411       17.62355       33.35460
H         -9.75749       18.05980       32.91445
H        -10.82462       15.18902       32.55936
H         -9.19576       15.84060       32.15674
H         -9.33406       14.40783       33.20494
H         -9.29842       18.84761       35.23245
H        -10.64604       19.73587       34.43026
H        -11.02247       18.51750       35.68319
N        -12.48966       13.92734       35.07742
C        -13.77811       13.44571       34.54827
C        -14.49771       12.38704       35.41921
O        -15.57756       11.96397       35.02888
C        -13.54745       12.85172       33.13697
C        -12.61263       11.67072       33.12957
O        -11.98628       11.29710       34.26013
O        -12.43799       11.03879       32.10134
H        -11.80365       13.23547       35.37075
H        -14.47647       14.30228       34.42265
H        -13.14145       13.63108       32.45749
H        -14.52912       12.52575       32.72666
N        -13.98308       11.91011       36.58786
C        -14.65328       10.94474       37.45648
C        -14.80885        9.50116       36.96070
O        -15.44095        8.75240       37.69352
H        -13.12170       12.32287       36.94124
H        -15.66403       11.34466       37.69250
H        -14.09545       10.88783       38.41614
N        -14.32601        9.01540       35.77272
C        -14.68841        7.66652       35.29769
C        -14.14127        6.48649       36.11070
O        -14.67492        5.40056       35.93152
C        -14.37621        7.46016       33.79039
C        -12.91757        7.38339       33.43016
O        -11.97665        7.43191       34.37777
O        -12.58213        7.31171       32.25973
H        -13.80777        9.64726       35.14793
H        -15.79864        7.61826       35.37068
H        -14.83263        8.30139       33.22691
H        -14.84709        6.51565       33.44237
N        -13.06386        6.58058       36.94945
C        -12.52326        5.42697       37.67545
C        -11.13248        4.99270       37.22060
O        -10.69678        3.93782       37.66283
H        -12.59883        7.48599       37.05543
H        -13.17986        4.54358       37.53083
H        -12.51051        5.64088       38.76559
N        -10.37916        5.72293       36.34859
C         -9.06371        5.31128       35.84922
C         -8.18372        6.51910       35.52751
O         -8.64910        7.64976       35.56481
C         -9.20400        4.46137       34.55413
C         -9.86300        3.08993       34.75712
C         -9.86289        2.29156       33.47352
N        -10.56257        2.70791       32.39144
O         -9.22551        1.25033       33.41355
H        -10.72511        6.64647       36.08764
H         -8.52504        4.74623       36.64215
H         -8.19259        4.25939       34.14060
H         -9.76785        5.04815       33.79474
H        -10.90855        3.19486       35.11126
H         -9.27729        2.53561       35.52326
H        -11.11878        3.57419       32.42128
H        -10.55619        2.15471       31.52081
N         -6.87578        6.33199       35.19022
C         -5.95803        7.40490       34.82041
C         -5.53240        7.17518       33.38258
O         -5.03727        6.09962       33.07069
C         -4.75641        7.45206       35.79986
C         -3.72241        8.50759       35.36951
C         -5.24079        7.78352       37.22200
H         -6.50276        5.36903       35.18272
H         -6.46151        8.39068       34.88065
H         -4.25425        6.45940       35.81564
H         -2.87509        8.52922       36.08764
H         -3.30526        8.26560       34.36962
H         -4.18323        9.51833       35.32876
H         -4.38508        7.79747       37.92975
H         -5.72526        8.78383       37.24239
H         -5.97037        7.02817       37.58151
N         -5.72979        8.14852       32.44730
C         -5.49120        7.96245       31.01978
C         -4.40595        8.89408       30.50048
O         -3.78694        9.59972       31.28193
C         -6.82513        8.10571       30.23032
C         -7.29153        9.51654       29.91586
N         -7.63147       10.40353       30.87444
O         -7.38833        9.85176       28.74508
H         -6.09201        9.05224       32.76834
H         -5.14634        6.92160       30.83629
H         -7.62694        7.53896       30.75098
H         -6.68020        7.60268       29.24968
H         -7.60768       10.15580       31.86576
H         -7.95598       11.34711       30.61602
N         -4.12396        8.92547       29.16883
C         -3.12466        9.78562       28.54295
C         -3.35393       11.28005       28.78311
O         -2.38384       11.96595       29.06201
C         -2.96572        9.48146       27.03064
C         -4.07213        9.97651       26.11193
C         -3.76409       10.95636       25.14944
C         -5.39013        9.47966       26.16491
C         -4.74366       11.43377       24.27616
C         -6.36902        9.96265       25.29311
C         -6.05187       10.93989       24.34767
O         -7.00936       11.39559       23.51604
H         -4.62802        8.25995       28.57662
H         -2.14161        9.51592       28.99314
H         -2.81801        8.38932       26.88396
H         -2.01350        9.96817       26.72288
H         -2.76041       11.35528       25.07032
H         -5.68930        8.71789       26.85949
H         -4.48280       12.18787       23.54506
H         -7.37763        9.57324       25.35371
H         -6.82998       12.07433       22.85014
N         -4.58443       11.86628       28.66258
C         -4.81717       13.30107       28.90085
C         -4.65430       13.71487       30.37182
O         -4.72788       14.90335       30.65212
C         -6.22956       13.72225       28.43595
C         -6.42842       13.52731       26.92762
C         -7.79177       13.99070       26.50437
O         -8.89313       13.40844       27.01617
O         -7.90899       14.89165       25.68908
H         -5.37299       11.27373       28.37571
H         -4.08073       13.87685       28.29644
H         -6.37291       14.80541       28.65086
H         -6.99578       13.14913       29.00351
H         -6.32575       12.45925       26.66239
H         -5.65216       14.10499       26.37804
N         -4.42705       12.80291       31.35620
C         -4.22660       13.11574       32.76977
C         -2.78725       12.82431       33.19122
O         -2.47740       12.99923       34.36149
C         -5.20424       12.26621       33.61001
C         -6.67291       12.65899       33.37283
C         -7.64495       11.71209       34.02862
O         -7.25670       10.74782       34.66531
O         -8.96610       11.89347       33.85942
H         -4.37588       11.81748       31.09952
H         -4.40260       14.19345       32.98025
H         -4.98891       12.38314       34.69369
H         -5.04672       11.19781       33.34174
H         -6.88886       12.65488       32.28725
H         -6.84349       13.68721       33.76009
N         -1.84537       12.41544       32.29256
C         -0.45975       12.15677       32.61535
H          0.18219       12.84175       32.02064
H         -0.23914       12.30529       33.69105
H         -0.21105       11.11115       32.33613
H         -2.09664       12.29246       31.31286
Ca       -10.95228        9.37189       34.52391
O        -11.08938        9.18747       37.86387
H        -11.97691        9.60576       37.73365
H        -11.14732        8.75239       38.75061
O         -8.33772        9.36626       37.68176
H         -8.02346       10.01316       37.00391
H         -8.09918        9.77435       38.54937
O        -10.02328        9.35996       31.95408
H         -9.92793        8.39331       32.14424
H        -10.46199        9.40610       31.06947

Ca 1.0



