%chk=holoCaM.loop2.water2.frame96.chk
%nprocshared=20
%mem=10GB
%nosave
#b3lyp/svp scf=(tight,noincore,xqc) Test 
#IOP(5/87=12) Density=Current Pop=(MK,readradii) iop(6/33=2) iop(6/42=6)

holoCaM.loop2.water2.frame96 

   -2  1 
C         75.39195       47.18117       32.89866
C         74.82827       48.13102       31.88022
O         75.45395       48.34608       30.85223
H         76.36467       47.55165       33.27768
H         74.69907       47.05115       33.75825
H         75.53289       46.18530       32.42614
N         73.60892       48.69621       32.08276
C         72.91878       49.48567       31.07410
C         73.58351       50.83657       30.80919
O         73.85376       51.55580       31.76084
C         71.45825       49.71668       31.50991
C         70.60272       50.11745       30.34316
O         69.42391       50.36053       30.52978
O         71.13877       50.05005       29.09467
H         73.10658       48.46560       32.95450
H         72.89191       48.86334       30.15277
H         71.41589       50.45132       32.34323
H         71.02245       48.75940       31.87373
N         73.79095       51.27686       29.53002
C         74.39713       52.56170       29.18907
C         73.42983       53.54431       28.51645
O         73.83395       54.68159       28.31477
C         75.58475       52.29887       28.25300
H         73.49861       50.67676       28.75380
H         74.76525       53.06026       30.11122
H         76.31570       51.61806       28.73781
H         75.22739       51.81405       27.31577
H         76.10183       53.24309       27.98189
N         72.17490       53.19171       28.10288
C         71.27784       54.10022       27.37820
C         69.81296       54.04169       27.83549
O         69.02783       54.81408       27.30089
C         71.40269       53.84896       25.85599
C         71.42202       52.39387       25.49385
O         70.39509       51.60560       25.82336
O         72.38897       51.91456       24.92286
H         71.89237       52.20940       28.18205
H         71.58330       55.15869       27.53829
H         72.36062       54.28805       25.50547
H         70.58342       54.36629       25.30906
N         69.35661       53.20554       28.81420
C         67.96651       53.20542       29.26869
C         66.94171       52.69638       28.25721
O         65.76141       52.75062       28.57223
H         70.01605       52.59270       29.30620
H         67.69631       54.23976       29.57527
H         67.87726       52.55978       30.16842
N         67.29301       52.18716       27.04047
C         66.33142       51.72927       26.03120
C         65.59446       50.41180       26.36609
O         64.88659       49.91568       25.50024
C         67.01991       51.63613       24.64627
C         68.03059       50.53825       24.48133
N         68.60685       50.34877       23.27763
O         68.32784       49.80905       25.41167
H         68.28591       52.18422       26.78943
H         65.57122       52.52878       25.89362
H         67.51329       52.60675       24.41520
H         66.23474       51.46809       23.87901
H         68.37976       50.95327       22.47573
H         69.26501       49.57854       23.14534
N         65.66742       49.80784       27.58862
C         64.94069       48.59660       27.95414
C         65.49722       47.28107       27.41942
O         64.92098       46.25917       27.76325
H         66.16632       50.27545       28.34899
H         63.87236       48.70751       27.66961
H         64.97824       48.50190       29.06167
N         66.59529       47.19917       26.61214
C         67.15276       45.93003       26.13088
C         68.61266       45.76517       26.50226
O         69.29553       46.74156       26.77003
C         67.06582       45.84766       24.58224
C         65.63839       45.60936       24.10558
O         67.55489       47.02539       23.98717
H         67.05544       48.06404       26.32106
H         66.61369       45.06439       26.57496
H         67.64731       44.97323       24.20524
H         68.53631       47.04889       24.13127
H         64.96499       46.42678       24.43302
H         65.62796       45.54947       22.99557
H         65.26954       44.64013       24.50571
N         69.17771       44.52573       26.41106
C         70.61422       44.31561       26.37200
C         71.09116       44.66062       24.97993
O         70.62483       44.07363       24.01354
C         70.99203       42.85321       26.77462
C         70.70348       42.56714       28.27516
C         72.46350       42.51374       26.45522
C         71.32300       43.57878       29.25324
H         68.57197       43.72882       26.16099
H         71.12684       45.00217       27.07145
H         70.39505       42.13853       26.16458
H         71.09189       41.55378       28.52072
H         69.60863       42.55695       28.45490
H         72.68005       41.45661       26.72256
H         72.65723       42.59823       25.36571
H         73.16648       43.17265       26.99677
H         72.41148       43.71290       29.08504
H         70.81563       44.55849       29.15936
H         71.16620       43.24335       30.29794
N         72.07888       45.58273       24.82934
C         72.70446       45.89343       23.55721
C         73.98402       45.07070       23.43727
O         74.29713       44.36246       24.37198
C         72.98790       47.40725       23.50687
C         71.72795       48.24037       23.56754
O         71.15928       48.71001       24.71917
O         71.28183       48.63574       22.50434
H         72.50477       45.98992       25.67170
H         72.04151       45.59943       22.71309
H         73.47631       47.60868       22.52726
H         73.69772       47.73284       24.29605
N         74.75706       45.06275       22.30898
C         75.99894       44.28131       22.24131
C         77.03244       44.81926       23.23297
O         77.56303       43.99801       23.97586
C         76.57831       44.20726       20.81243
C         77.85738       43.39366       20.77960
C         77.83841       41.99237       20.91942
C         79.09169       44.04699       20.62254
C         79.03528       41.26422       20.88678
C         80.28343       43.31795       20.60698
C         80.25604       41.92753       20.73319
H         74.45389       45.60474       21.48858
H         75.76526       43.22353       22.50498
H         76.78211       45.21586       20.42753
H         75.84035       43.75669       20.11399
H         76.90191       41.46225       21.04077
H         79.13216       45.12483       20.53080
H         79.01974       40.18547       20.98154
H         81.22868       43.83333       20.49741
H         81.18162       41.36584       20.71358
N         77.36553       46.15122       23.36228
C         78.31471       46.68063       24.34453
C         78.01456       46.35488       25.80466
O         78.79405       46.73842       26.66274
C         78.20698       48.20304       24.17726
C         77.87253       48.33542       22.71619
C         76.84385       47.22648       22.53651
H         79.32290       46.29884       24.06920
H         77.30821       48.57446       24.72676
H         79.09202       48.77527       24.52731
H         77.52260       49.33987       22.39654
H         78.78719       48.06882       22.13815
H         75.84599       47.51827       22.92145
H         76.79938       47.00916       21.46047
N         76.89403       45.66851       26.15497
C         76.51057       45.33081       27.50927
C         76.69044       43.83286       27.64693
O         77.46718       43.40473       28.48895
C         75.06691       45.82765       27.74180
C         74.96782       47.31922       27.36297
C         73.59814       47.88091       27.47422
O         72.57333       47.14786       27.94492
O         73.40739       49.01969       27.08796
H         76.23065       45.38109       25.43729
H         77.17090       45.83572       28.24835
H         74.76551       45.66440       28.79926
H         74.36593       45.26521       27.08814
H         75.24587       47.44901       26.29498
H         75.65747       47.92478       27.98698
N         76.07197       42.98052       26.78277
C         76.36293       41.56823       26.68121
H         77.25853       41.28452       27.27088
H         75.48276       40.97837       27.00367
H         76.57880       41.32789       25.61546
H         75.39619       43.34931       26.11168
Ca        70.76762       49.18484       26.97350
O         69.95984       47.22141       29.64564
H         70.86180       46.82274       29.69343
H         69.57746       47.06730       30.54445
O         68.37015       49.21272       28.33095
H         68.35598       50.19432       28.45991
H         67.88257       48.84077       29.10823

Ca 1.0



