%chk=holoCaM.loop4.water3.frame41.chk
%nprocshared=20
%mem=10GB
%nosave
#b3lyp/svp scf=(tight,noincore,xqc) Test 
#IOP(5/87=12) Density=Current Pop=(MK,readradii) iop(6/33=2) iop(6/42=6)

holoCaM.loop4.water3.frame41 

   -3  1 
C         17.93930      -13.99379       27.52339
C         17.29887      -12.89831       28.32491
O         16.66382      -12.04301       27.74295
H         19.01829      -14.08247       27.75171
H         17.42981      -14.95063       27.77751
H         17.79898      -13.82262       26.43315
N         17.35562      -12.91621       29.68272
C         16.48463      -12.11321       30.54053
C         17.23141      -11.32525       31.61837
O         18.05943      -11.89902       32.31161
C         15.55806      -13.13694       31.20098
C         14.63233      -12.58752       32.22553
O         13.68372      -11.68183       31.94864
O         14.71861      -13.00057       33.36984
H         17.92165      -13.65524       30.12880
H         15.84866      -11.41553       29.95158
H         16.19022      -13.89962       31.70911
H         14.95796      -13.65088       30.42100
N         16.89125      -10.02000       31.87389
C         17.42525       -9.21936       32.98331
C         16.30897       -8.72262       33.94831
O         16.64791       -8.12648       34.95977
C         18.27569       -8.03252       32.39278
C         19.19712       -7.31844       33.41519
C         17.40037       -6.97326       31.70154
C         20.36296       -8.19239       33.87671
H         16.19582       -9.58417       31.26205
H         18.09929       -9.86673       33.57638
H         18.94760       -8.45011       31.60933
H         18.62490       -6.93889       34.28363
H         19.66364       -6.43437       32.92576
H         16.70227       -6.48915       32.41673
H         18.03566       -6.18502       31.24325
H         16.83091       -7.42199       30.87899
H         20.99795       -7.61487       34.58070
H         20.01964       -9.10992       34.39066
H         20.98706       -8.47450       33.00033
N         14.97032       -8.87977       33.68298
C         13.88597       -8.28886       34.49114
C         12.76412       -9.27157       34.87821
O         11.82676       -8.85444       35.54510
C         13.33997       -7.02045       33.77945
C         12.89297       -7.14930       32.34350
O         12.95508       -8.31321       31.67925
O         12.52927       -6.14904       31.74918
H         14.70259       -9.35683       32.81859
H         14.28753       -7.91787       35.45989
H         14.16221       -6.27267       33.77936
H         12.50157       -6.59236       34.37201
N         12.81615      -10.59101       34.55056
C         11.84925      -11.60763       34.95822
C         10.43666      -11.48084       34.40505
O          9.61617      -12.30623       34.78341
H         13.64828      -10.91697       34.06922
H         11.79684      -11.61340       36.06778
H         12.22639      -12.60360       34.63607
N         10.05064      -10.49304       33.54727
C          8.65393      -10.32348       33.13150
C          8.09515      -11.44196       32.24619
O          6.88375      -11.49123       32.08131
C          8.44376       -8.95848       32.44647
C          9.24167       -8.75557       31.18859
O         10.14068       -9.66620       30.76967
O          9.08471       -7.72991       30.54847
H         10.74638       -9.79589       33.25207
H          8.04178      -10.30658       34.06129
H          8.72411       -8.15057       33.15581
H          7.36641       -8.84518       32.20069
N          8.89625      -12.33780       31.60893
C          8.38559      -13.42465       30.78127
C          8.39257      -13.13484       29.28775
O          8.12093      -14.06171       28.53793
H          9.91283      -12.24796       31.71037
H          7.36540      -13.73182       31.09694
H          9.04129      -14.30599       30.95883
N          8.69541      -11.90561       28.77126
C          8.85272      -11.64936       27.33633
C         10.27968      -11.19981       27.05384
O         11.03691      -11.01765       27.99809
C          7.86903      -10.57440       26.83092
C          6.38849      -10.93872       27.02515
C          5.46724       -9.95762       26.32554
N          4.12662      -10.06892       26.46118
O          5.92287       -9.06420       25.62453
H          8.86732      -11.12581       29.41318
H          8.68034      -12.58114       26.75622
H          8.04640      -10.44428       25.74241
H          8.06793       -9.60316       27.33744
H          6.16342      -10.94703       28.11313
H          6.18615      -11.95029       26.61062
H          3.71575      -10.80232       27.05595
H          3.49798       -9.40898       25.97818
N         10.71691      -10.99402       25.77064
C         12.08833      -10.59544       25.45881
C         12.12583       -9.16810       24.91817
O         11.54527       -8.87269       23.88383
C         12.78600      -11.63725       24.53673
C         12.23798      -11.65943       23.10040
C         14.30595      -11.40626       24.49606
H         10.05842      -11.13530       24.99216
H         12.67401      -10.61284       26.39931
H         12.62118      -12.64057       24.99022
H         11.14133      -11.81508       23.08743
H         12.47812      -10.71407       22.57006
H         12.71079      -12.48543       22.52902
H         14.73207      -11.45474       25.51802
H         14.80033      -12.19615       23.89160
H         14.54874      -10.41501       24.06019
N         12.78654       -8.21994       25.63227
C         12.92708       -6.81225       25.27169
C         13.89854       -6.62194       24.11863
O         14.50170       -7.57750       23.66239
C         13.42182       -6.08246       26.54843
C         13.66094       -4.60288       26.51633
N         12.67807       -3.74710       26.16792
O         14.74633       -4.16577       26.86675
H         13.18635       -8.51711       26.52679
H         11.92982       -6.40828       24.99213
H         14.35364       -6.57441       26.90678
H         12.62624       -6.22303       27.29123
H         11.75273       -4.09334       25.87877
H         12.85166       -2.73389       26.18944
N         14.07562       -5.37905       23.59641
C         15.05578       -5.01069       22.57953
C         16.48301       -5.10473       23.11799
O         17.32112       -5.69422       22.44992
C         14.69138       -3.63142       21.96938
C         14.51880       -2.46576       22.92166
C         15.61885       -1.70305       23.33796
C         13.22952       -2.09485       23.35391
C         15.43330       -0.59234       24.17199
C         13.04878       -0.99635       24.19691
C         14.14715       -0.23856       24.60634
O         13.95328        0.82804       25.40809
H         13.45218       -4.64554       23.94395
H         14.97108       -5.70963       21.71623
H         13.70815       -3.78900       21.47157
H         15.38783       -3.35022       21.15056
H         16.61625       -1.95649       23.00321
H         12.35926       -2.66269       23.04684
H         16.28963       -0.00538       24.47771
H         12.05163       -0.73452       24.53063
H         14.68211        1.39449       25.69802
N         16.82390       -4.59568       24.34014
C         18.16224       -4.74343       24.93265
C         18.49305       -6.19513       25.29012
O         19.62325       -6.46540       25.67457
C         18.29638       -3.91674       26.22932
C         18.04319       -2.42340       26.00850
C         18.20522       -1.66744       27.29177
O         17.39304       -1.92698       28.33484
O         19.06474       -0.80761       27.39381
H         16.09430       -4.10528       24.86771
H         18.90813       -4.36691       24.19710
H         19.33218       -4.03215       26.62336
H         17.58743       -4.30993       26.99195
H         17.01238       -2.25313       25.65119
H         18.75519       -2.04178       25.24468
N         17.55140       -7.17296       25.20135
C         17.76714       -8.57609       25.52042
C         17.75818       -9.42716       24.26133
O         18.25079      -10.54622       24.31327
C         16.59789       -9.05921       26.39349
C         16.56369       -8.46027       27.80461
C         15.30459       -8.84778       28.53294
O         14.52699       -9.65778       28.06273
O         14.99918       -8.25981       29.69758
H         16.60839       -6.91880       24.89565
H         18.74473       -8.73699       26.02935
H         16.62282      -10.15311       26.46538
H         15.65170       -8.79454       25.86775
H         16.58364       -7.35491       27.73077
H         17.44489       -8.80035       28.39249
N         17.13378       -9.01370       23.12495
C         16.99613       -9.85106       21.95970
H         16.36586       -9.33017       21.20661
H         17.99265      -10.05957       21.52340
H         16.48988      -10.80046       22.23664
H         16.69679       -8.09156       23.07945
Ca        13.00910      -10.19416       30.45254
O         11.83454      -12.95373       30.42610
H         11.94154      -13.35255       31.32559
H         11.88576      -13.72427       29.81185
O         12.13820       -7.69631       29.07614
H         12.54855       -6.84479       29.36792
H         11.27416       -7.70698       29.54525
O         13.54808      -12.30922       28.31712
H         13.19244      -13.15892       27.96136
H         14.28864      -12.09672       27.70558

Ca 1.0



