%chk=holoCaM.loop2.water1.frame43.chk
%nprocshared=20
%mem=10GB
%nosave
#b3lyp/svp scf=(tight,noincore,xqc) Test 
#IOP(5/87=12) Density=Current Pop=(MK,readradii) iop(6/33=2) iop(6/42=6)

holoCaM.loop2.water1.frame43 

   -2  1 
C          2.75919      102.60476       19.59018
C          3.21593      103.97504       19.18773
O          4.23749      104.10668       18.52938
H          1.74779      102.41452       19.17257
H          3.45718      101.82557       19.21974
H          2.70796      102.54419       20.69851
N          2.48790      105.05595       19.57155
C          2.83934      106.43184       19.24503
C          4.21615      106.78801       19.78694
O          4.44199      106.65451       20.98169
C          1.76399      107.36991       19.81514
C          2.10738      108.80743       19.61234
O          2.23384      109.27747       18.49207
O          2.30697      109.57363       20.69672
H          1.63527      104.88237       20.12796
H          2.83890      106.55323       18.14735
H          1.66961      107.18957       20.90784
H          0.78159      107.15435       19.34142
N          5.17812      107.26826       18.94354
C          6.53468      107.59397       19.35936
C          6.87355      109.07421       19.19625
O          8.00019      109.41947       19.52727
C          7.51327      106.72659       18.55710
H          4.94756      107.39385       17.94844
H          6.68022      107.35309       20.43505
H          7.28920      105.65097       18.72380
H          7.42946      106.94331       17.47020
H          8.56047      106.91264       18.87935
N          5.97856      110.01283       18.74356
C          6.31706      111.44027       18.65663
C          5.52957      112.31235       19.62159
O          5.94193      113.44910       19.81009
C          6.19239      111.97135       17.22087
C          4.81666      111.83240       16.63647
O          4.68744      111.09094       15.52943
O          3.84810      112.39372       17.12350
H          5.03021      109.71861       18.47205
H          7.37982      111.58307       18.94966
H          6.90326      111.40517       16.57988
H          6.48657      113.04238       17.18358
N          4.41541      111.87461       20.27670
C          3.75622      112.65929       21.31289
C          2.33690      113.10858       21.01233
O          1.82197      113.84512       21.84170
H          4.05618      110.94115       20.07053
H          4.33333      113.58455       21.51923
H          3.75463      112.06735       22.25365
N          1.62678      112.73840       19.90175
C          0.27847      113.25959       19.62945
C         -0.83217      112.23271       19.83712
O         -1.97632      112.54606       19.53469
C          0.18515      113.91654       18.23022
C          0.28932      112.99416       17.03820
N         -0.01529      113.46770       15.80810
O          0.62084      111.82673       17.16760
H          2.04171      112.06720       19.24078
H          0.03652      114.08003       20.33963
H          0.94302      114.72332       18.13091
H         -0.81543      114.39917       18.17252
H         -0.32420      114.44270       15.68147
H          0.02718      112.85500       14.98292
N         -0.60111      111.02323       20.41922
C         -1.65868      110.06450       20.69937
C         -2.24311      109.39991       19.46816
O         -3.18859      108.64265       19.63129
H          0.33783      110.80467       20.75856
H         -2.46313      110.57994       21.26850
H         -1.25598      109.25318       21.34347
N         -1.72977      109.59701       18.21904
C         -2.25980      108.96393       17.01409
C         -1.20172      108.02540       16.42678
O         -0.06735      108.03245       16.88337
C         -2.73842      110.09300       16.06030
C         -3.32583      109.60985       14.72875
O         -3.71654      110.84907       16.72916
H         -0.91544      110.20945       18.10291
H         -3.13537      108.32883       17.27101
H         -1.86143      110.74414       15.85113
H         -3.74052      111.74357       16.29726
H         -4.19530      108.94226       14.90557
H         -3.66580      110.48388       14.13328
H         -2.56450      109.08916       14.11588
N         -1.53940      107.12415       15.45955
C         -0.63425      106.11475       14.91531
C         -0.45382      106.33577       13.42368
O         -1.43689      106.44524       12.70517
C         -1.20160      104.69093       15.21174
C         -1.16874      104.42904       16.74173
C         -0.40747      103.59933       14.45745
C         -1.84111      103.12013       17.16195
H         -2.51174      107.10378       15.12137
H          0.36512      106.16576       15.39194
H         -2.25362      104.64961       14.85084
H         -1.70290      105.24717       17.26923
H         -0.11337      104.42324       17.09682
H          0.66039      103.60224       14.76249
H         -0.83381      102.59217       14.62756
H         -0.46960      103.75689       13.36154
H         -1.79488      103.02288       18.26695
H         -2.90639      103.12177       16.84887
H         -1.33134      102.23454       16.73365
N          0.80163      106.29297       12.88733
C          1.07889      106.34719       11.45464
C          1.54334      104.98113       10.98780
O          1.63939      104.07448       11.79728
C          2.19766      107.36090       11.17173
C          1.94712      108.68683       11.80032
O          0.99507      109.37980       11.48351
O          2.81957      109.08124       12.73908
H          1.60062      106.12353       13.51423
H          0.16392      106.62612       10.88961
H          2.36061      107.48903       10.08133
H          3.13840      106.96507       11.62041
N          1.85042      104.75580        9.68173
C          2.32162      103.46100        9.20821
C          3.67277      103.08680        9.83175
O          3.73355      102.00387       10.39910
C          2.33278      103.41808        7.66569
C          2.70634      102.05685        7.13300
C          1.91133      100.93148        7.41922
C          3.84955      101.90295        6.33181
C          2.25835       99.67623        6.91306
C          4.19219      100.64555        5.82748
C          3.39754       99.53329        6.11736
H          1.72129      105.52087        9.00346
H          1.57136      102.69955        9.51823
H          3.00810      104.18451        7.25399
H          1.31493      103.66531        7.29306
H          1.02085      101.02275        8.02825
H          4.47552      102.75500        6.09736
H          1.64172       98.81497        7.13578
H          5.07366      100.53467        5.21008
H          3.66338       98.56114        5.72396
N          4.78690      103.89638        9.81429
C          6.05935      103.56128       10.45353
C          5.90985      103.02812       11.86438
O          6.47946      101.99613       12.18745
C          6.80383      104.90640       10.50264
C          6.33660      105.56030        9.23108
C          4.84759      105.23029        9.24121
H          6.60507      102.83453        9.81061
H          6.41170      105.54171       11.33039
H          7.90446      104.82311       10.62725
H          6.56643      106.64355        9.13836
H          6.81512      105.01575        8.38585
H          4.28276      105.91999        9.89651
H          4.49245      105.30604        8.20242
N          5.13518      103.70518       12.75253
C          4.94373      103.31817       14.14462
C          4.33094      101.93142       14.22273
O          4.92636      101.05363       14.83263
C          4.06448      104.37620       14.85087
C          4.78118      105.74933       14.88908
C          3.93366      106.86959       15.41585
O          2.77500      106.68753       15.74496
O          4.45542      108.10791       15.49235
H          4.64571      104.54170       12.40216
H          5.92833      103.29907       14.66477
H          3.84712      104.05978       15.89333
H          3.10031      104.46106       14.30612
H          5.09314      106.06479       13.87407
H          5.69419      105.65957       15.51630
N          3.16036      101.64996       13.59196
C          2.57355      100.32860       13.58900
H          1.64092      100.33263       12.98456
H          3.28126       99.60181       13.13510
H          2.32890      100.01639       14.62532
H          2.68078      102.39083       13.07197
Ca         2.90984      110.73945       14.22464
O         -0.42195      110.63715       13.88885
H          0.29305      109.96144       13.80068
H         -0.59749      110.96624       12.97260

Ca 1.0



