%chk=holoCaM.loop3.water2.frame233.chk
%nprocshared=20
%mem=10GB
%nosave
#b3lyp/svp scf=(tight,noincore,xqc) Test 
#IOP(5/87=12) Density=Current Pop=(MK,readradii) iop(6/33=2) iop(6/42=6)

holoCaM.loop3.water2.frame233 

   0  1 
C         49.66626       76.91612       39.71800
C         48.65624       78.01915       39.60099
O         48.28767       78.37876       38.49496
H         50.57005       77.28798       40.24571
H         49.22831       76.07534       40.29661
H         49.96373       76.54351       38.71503
N         48.14919       78.58924       40.72645
C         47.14893       79.65801       40.72681
C         47.73231       80.91472       40.08044
O         48.53256       81.59988       40.70230
C         46.70433       79.86535       42.19512
C         45.85953       81.04393       42.56803
O         45.05607       81.69944       41.72626
O         46.04769       81.54557       43.66214
H         48.48654       78.21664       41.62939
H         46.26723       79.31803       40.14001
H         47.63094       79.98635       42.79828
H         46.21374       78.94406       42.57471
N         47.44107       81.20700       38.77628
C         48.06443       82.30041       38.02994
C         47.50191       83.67541       38.33885
O         48.11625       84.64264       37.91052
C         47.99261       82.05418       36.49784
C         48.79107       80.82138       36.01756
C         50.26487       80.80961       36.47850
C         51.04169       82.08053       36.08097
N         52.37917       82.08158       36.66901
H         46.86854       80.52790       38.26307
H         49.12820       82.35547       38.33117
H         48.39499       82.93910       35.96288
H         46.93572       81.95914       36.16884
H         48.74941       80.79293       34.90660
H         48.30618       79.89545       36.38792
H         50.77225       79.91752       36.05216
H         50.29248       80.68985       37.58098
H         50.52394       82.98933       36.45060
H         51.10860       82.14656       34.97281
H         52.87414       82.95836       36.38612
H         52.30268       82.06903       37.71317
H         52.92469       81.25293       36.34228
N         46.35626       83.86153       39.04617
C         45.85013       85.17628       39.40432
C         45.73513       85.36310       40.90780
O         45.22789       86.39555       41.32584
C         44.56176       85.53173       38.63141
C         43.28074       84.71379       38.64805
O         42.27715       85.29476       38.27276
O         43.14269       83.39135       38.90663
H         45.82522       83.04879       39.34986
H         46.56553       85.97009       39.08902
H         44.82459       85.64028       37.55849
H         44.28885       86.56628       38.94930
N         46.26191       84.46399       41.79215
C         46.21721       84.67544       43.22918
C         44.82089       84.55725       43.81688
O         44.67931       84.83853       44.99816
H         46.77473       83.64108       41.44925
H         46.63254       85.68568       43.44550
H         46.87464       83.94228       43.73940
N         43.73741       84.18207       43.06918
C         42.36949       84.27496       43.57447
C         41.95171       83.13278       44.51248
O         40.82000       83.15654       44.97526
C         41.38916       84.48759       42.39229
C         40.93692       83.23401       41.68634
N         39.61206       82.99604       41.52399
O         41.75411       82.44333       41.24521
H         43.86728       83.97152       42.07073
H         42.31011       85.23512       44.13427
H         41.86349       85.17729       41.65765
H         40.48728       85.01001       42.77436
H         38.90869       83.67033       41.86162
H         39.28024       82.15246       41.03660
N         42.79499       82.10654       44.84343
C         42.44792       81.03686       45.77576
C         41.86973       79.79060       45.11378
O         41.64375       78.81725       45.81355
H         43.75766       82.11240       44.48581
H         41.76413       81.41187       46.56907
H         43.38110       80.72533       46.29444
N         41.59578       79.75243       43.77917
C         41.05295       78.59731       43.06280
C         41.94602       78.27857       41.86887
O         42.26830       79.18247       41.11365
C         39.63775       78.94844       42.55391
C         38.55565       78.74390       43.59306
C         37.83890       79.82366       44.13401
C         38.21142       77.43415       43.97994
C         36.79227       79.59420       45.03850
C         37.15803       77.20736       44.87051
C         36.44026       78.28780       45.39951
O         35.40692       78.08290       46.24275
H         41.75320       80.60235       43.22343
H         40.97886       77.68739       43.69775
H         39.35516       78.28422       41.70751
H         39.64417       79.98640       42.15751
H         38.08287       80.83978       43.85289
H         38.73906       76.58349       43.56591
H         36.24135       80.43175       45.44742
H         36.89217       76.19129       45.13733
H         35.10928       77.19458       46.48861
N         42.29953       76.98437       41.58839
C         43.06275       76.60632       40.39716
C         42.10143       75.96805       39.40416
O         41.38289       75.06076       39.79988
C         44.18711       75.55898       40.69999
C         44.97674       75.82733       42.00078
C         45.14452       75.48696       39.48352
C         45.89660       74.65191       42.36780
H         41.93195       76.22975       42.18636
H         43.54316       77.50488       39.95837
H         43.69540       74.57101       40.84717
H         44.25939       75.92420       42.84228
H         45.56199       76.76558       41.92431
H         44.59284       75.27284       38.54860
H         45.67467       76.45788       39.35510
H         45.90293       74.68823       39.58834
H         46.70531       74.50602       41.62456
H         46.37367       74.83663       43.35155
H         45.30536       73.71165       42.44183
N         42.09010       76.32477       38.08628
C         41.26544       75.63503       37.09578
C         42.14135       74.78175       36.20121
O         43.35477       74.87108       36.29477
C         40.45647       76.64532       36.27076
O         41.32051       77.48544       35.54848
H         42.75327       77.03583       37.75506
H         40.55552       74.94744       37.60223
H         39.82361       77.26565       36.93990
H         39.78283       76.08322       35.58158
H         40.93451       77.59300       34.64052
N         41.59009       73.88597       35.33375
C         42.41400       73.04452       34.46980
C         43.12660       73.86622       33.41251
O         44.18052       73.44461       32.95121
C         41.57479       71.95799       33.79907
H         40.56486       73.77679       35.31796
H         43.16728       72.52703       35.10683
H         41.08199       71.33577       34.57661
H         40.79608       72.40999       33.14932
H         42.22520       71.29766       33.18583
N         42.60995       75.05002       32.97316
C         43.28696       75.91395       32.01572
C         44.62325       76.34390       32.58212
O         45.63968       76.16559       31.93381
C         42.42381       77.14395       31.70409
H         41.70245       75.36412       33.35325
H         43.44241       75.36988       31.05703
H         42.93304       77.79560       30.96282
H         41.45307       76.81828       31.27196
H         42.22091       77.73964       32.61854
N         44.67648       76.86701       33.84015
C         45.91771       77.24865       34.50763
C         46.87749       76.07354       34.53029
O         48.00260       76.22805       34.07134
C         45.61780       77.81081       35.91887
C         44.77621       79.09795       35.78388
C         44.50242       79.77921       37.08011
O         43.85981       79.14237       38.07219
O         44.80101       80.95282       37.21077
H         43.79007       76.94850       34.35455
H         46.40829       78.06915       33.93819
H         46.57687       78.05848       36.42221
H         45.08578       77.05669       36.54126
H         43.79249       78.87810       35.32884
H         45.31378       79.81322       35.12280
N         46.47987       74.84294       34.94912
C         47.33618       73.68212       34.84240
H         48.23364       73.80560       35.48242
H         46.78347       72.77108       35.15600
H         47.65069       73.54577       33.78372
H         45.52198       74.70818       35.29349
Ca        44.11395       81.54444       39.74685
O         41.97594       81.87498       36.99491
H         41.57991       82.78202       37.01824
H         42.45303       81.83493       36.12992
O         40.26234       80.54853       39.06901
H         39.85438       79.73325       39.45385
H         40.04328       80.50081       38.10505

Ca 1.0



