%chk=holoCaM-CaMKII.loop4.water1.frame363.chk
%nprocshared=20
%mem=10GB
%nosave
#b3lyp/svp scf=(tight,noincore,xqc) Test 
#IOP(5/87=12) Density=Current Pop=(MK,readradii) iop(6/33=2) iop(6/42=6)

holoCaM-CaMKII.loop4.water1.frame363 

   -3  1 
C         68.98328       61.26590       27.16293
C         69.93621       61.59782       26.05094
O         69.95237       60.89196       25.05564
H         67.94091       61.29252       26.78338
H         69.20783       60.25098       27.55257
H         69.07034       61.98854       28.00242
N         70.76754       62.66880       26.15689
C         71.72868       63.05901       25.12985
C         72.74319       61.94934       24.87152
O         73.40651       61.49643       25.79291
C         72.39512       64.38329       25.55151
C         73.52648       64.85055       24.67779
O         74.59209       65.13029       25.20220
O         73.41226       64.99656       23.34356
H         70.70455       63.24128       27.01374
H         71.17345       63.26974       24.19210
H         72.78733       64.28965       26.58855
H         71.60830       65.16992       25.55534
N         72.91777       61.49852       23.59625
C         73.82189       60.43950       23.17349
C         75.01334       61.04624       22.43644
O         76.13962       60.70484       22.76884
C         73.06900       59.43437       22.23413
C         71.79471       58.86672       22.91292
C         74.01544       58.29771       21.79199
C         70.97569       57.92776       22.01878
H         72.37198       61.94189       22.85617
H         74.20354       59.87679       24.05536
H         72.74427       59.98265       21.32060
H         71.12734       59.71333       23.16791
H         72.06217       58.33176       23.84936
H         74.91004       58.70166       21.27530
H         74.34579       57.70249       22.66942
H         73.52571       57.62496       21.06026
H         70.69834       58.43409       21.07111
H         71.53119       56.99728       21.78564
H         70.04428       57.63187       22.54624
N         74.83936       61.93760       21.41496
C         75.92531       62.40333       20.54894
C         76.52840       63.75132       20.95462
O         77.37575       64.25324       20.22842
C         75.47871       62.32502       19.07197
C         74.37301       63.27048       18.68021
O         73.93626       63.23530       17.54116
O         73.86456       64.16069       19.55389
H         73.88399       62.25127       21.19857
H         76.77687       61.69106       20.62145
H         75.13618       61.28420       18.87539
H         76.35087       62.52376       18.41286
N         76.26255       64.31256       22.16705
C         77.01788       65.42794       22.72336
C         76.72565       66.78829       22.13287
O         77.65849       67.46527       21.72573
H         75.60800       63.83633       22.80163
H         78.10642       65.20267       22.66802
H         76.76492       65.51151       23.79994
N         75.45714       67.28472       22.13801
C         75.12281       68.66943       21.80793
C         74.30511       69.37038       22.90203
O         74.19548       70.58824       22.82438
C         74.45016       68.76570       20.42382
C         73.18513       67.96921       20.24095
O         72.61971       67.99795       19.16035
O         72.67588       67.20785       21.22586
H         74.70981       66.64854       22.40781
H         76.06593       69.25386       21.72808
H         75.17817       68.40435       19.66645
H         74.23288       69.83437       20.20483
N         73.68834       68.70633       23.92910
C         72.96440       69.37451       25.00191
C         71.45649       69.22710       24.90301
O         70.78083       69.70046       25.80005
H         73.70578       67.67992       23.97125
H         73.17057       70.46694       25.01259
H         73.32354       68.96627       25.97192
N         70.85806       68.65952       23.81147
C         69.40584       68.62600       23.61792
C         68.92156       67.20487       23.37289
O         69.74082       66.31717       23.20866
C         69.02018       69.63379       22.50510
C         69.72679       69.44461       21.14462
C         69.23449       68.24301       20.39255
N         67.95931       68.20113       19.95050
O         69.99086       67.31557       20.15067
H         71.44670       68.29597       23.05874
H         68.89714       68.96730       24.54419
H         69.32998       70.63482       22.87786
H         67.91792       69.66505       22.36971
H         70.82548       69.40365       21.28640
H         69.53320       70.33247       20.50571
H         67.31567       68.98803       20.11644
H         67.62421       67.39118       19.41838
N         67.57991       66.91158       23.43506
C         67.07749       65.54016       23.34699
C         65.96541       65.43849       22.30207
O         64.87627       65.94151       22.52804
C         66.59170       65.06273       24.75044
C         66.12627       63.59668       24.72722
C         67.70703       65.20615       25.80345
H         66.91246       67.66604       23.64306
H         67.90149       64.86240       23.05378
H         65.73793       65.69810       25.07502
H         65.77667       63.29096       25.73720
H         65.27838       63.46061       24.02794
H         66.95789       62.92463       24.42412
H         68.02448       66.26504       25.90470
H         67.34207       64.87758       26.80021
H         68.59148       64.59255       25.52777
N         66.18913       64.78267       21.12552
C         65.16984       64.53107       20.10646
C         64.19599       63.45706       20.56531
O         64.36974       62.89529       21.63514
C         65.85237       64.02389       18.81057
C         66.74316       65.07352       18.20536
N         68.07880       64.88045       18.10960
O         66.24856       66.11081       17.78967
H         67.13876       64.45973       20.93444
H         64.62107       65.47234       19.88280
H         65.10506       63.75082       18.03662
H         66.43585       63.10794       19.05000
H         68.51421       64.01385       18.45732
H         68.68140       65.60686       17.69517
N         63.15074       63.09729       19.76884
C         62.25249       61.98766       20.07124
C         63.00621       60.66736       20.02408
O         62.93690       59.90961       20.98072
C         61.08536       61.96200       19.05943
C         60.10535       60.84137       19.33279
C         59.43421       60.75917       20.56625
C         59.85046       59.86862       18.35091
C         58.53221       59.72054       20.81356
C         58.94273       58.83426       18.59856
C         58.28133       58.75647       19.83256
O         57.40394       57.76445       20.08549
H         62.99753       63.62891       18.89771
H         61.81448       62.14113       21.08176
H         61.49346       61.87202       18.02822
H         60.53800       62.92738       19.12011
H         59.60791       61.49552       21.33994
H         60.35104       59.91023       17.39157
H         58.02607       59.66687       21.76932
H         58.75442       58.09451       17.83072
H         57.19773       57.08064       19.43237
N         63.75454       60.34059       18.92951
C         64.48804       59.08358       18.78139
C         65.36605       58.79917       19.98445
O         65.30890       57.69777       20.51446
C         65.30590       59.06603       17.45989
C         66.43817       60.11041       17.37607
C         67.12299       60.07325       16.04095
O         68.43887       59.79529       15.96442
O         66.49775       60.31650       15.02116
H         63.81010       61.03104       18.16607
H         63.74986       58.25406       18.70091
H         64.59559       59.23190       16.62051
H         65.75503       58.05615       17.32857
H         67.19992       59.89878       18.15367
H         66.03821       61.13339       17.53013
N         66.17271       59.76741       20.49376
C         67.04137       59.56105       21.64427
C         66.20732       59.19770       22.86060
O         66.43204       58.14626       23.44309
C         67.88943       60.81969       21.91989
C         68.77785       61.20256       20.71628
C         69.62167       62.39045       21.04518
O         70.95171       62.34703       20.93427
O         69.10943       63.41735       21.44134
H         66.14403       60.69531       20.04902
H         67.75050       58.73121       21.42342
H         68.54093       60.61842       22.79761
H         67.22318       61.67644       22.16627
H         68.15882       61.47013       19.83892
H         69.43279       60.35229       20.43378
N         65.19494       60.01303       23.26796
C         64.31341       59.72105       24.37929
H         63.26986       59.64394       24.00496
H         64.57297       58.77013       24.88869
H         64.36541       60.54810       25.11749
H         65.01576       60.87769       22.74610
Ca        71.93682       64.12076       21.90737
O         71.24738       64.70339       18.19559
H         71.90747       65.28545       17.74208
H         70.94278       64.07859       17.49024

Ca 1.0



