%chk=holoCaM-CaMKII.loop1.water2.frame254.chk
%nprocshared=20
%mem=10GB
%nosave
#b3lyp/svp scf=(tight,noincore,xqc) Test 
#IOP(5/87=12) Density=Current Pop=(MK,readradii) iop(6/33=2) iop(6/42=6)

holoCaM-CaMKII.loop1.water2.frame254 

   0  1 
C         93.40508       90.83441       46.47516
C         93.46102       90.42515       45.03428
O         92.74586       90.99029       44.21984
H         92.66543       91.64807       46.62927
H         93.11727       89.96157       47.09798
H         94.40616       91.19436       46.79481
N         94.31873       89.44066       44.65050
C         94.47028       88.99396       43.26883
C         93.16022       88.36533       42.79455
O         92.82461       87.27531       43.23803
C         95.63212       87.97968       43.22784
C         96.09373       87.43349       41.90934
O         95.73986       87.92493       40.70467
O         96.88716       86.51093       41.94458
H         94.91132       89.01748       45.38295
H         94.73780       89.88694       42.66520
H         95.32945       87.11303       43.85626
H         96.52946       88.43428       43.70327
N         92.31530       89.06062       41.98077
C         90.95996       88.61236       41.66769
C         90.90405       87.61443       40.51296
O         89.87565       86.97075       40.35975
C         90.07763       89.85565       41.37893
C         88.56084       89.60575       41.25394
C         87.92190       88.90296       42.46735
C         88.15604       89.63960       43.79804
N         87.52020       88.92705       44.90481
H         92.57802       90.02686       41.75587
H         90.56834       88.12513       42.58527
H         90.43271       90.35232       40.44926
H         90.22905       90.58620       42.20198
H         88.35092       89.00201       40.34641
H         88.06747       90.59243       41.11009
H         88.31759       87.86929       42.54663
H         86.82818       88.82630       42.28281
H         87.74487       90.67120       43.73398
H         89.24413       89.70749       44.01171
H         87.71495       89.43701       45.79665
H         86.48636       88.87946       44.75694
H         87.91244       87.95984       44.97908
N         91.92983       87.48068       39.62031
C         91.87795       86.59960       38.45232
C         93.04011       85.60218       38.39861
O         93.09876       84.83266       37.44963
C         91.71706       87.44430       37.16676
C         92.83033       88.39850       36.83127
O         92.71269       89.12144       35.85486
O         93.95035       88.47093       37.57280
H         92.75552       88.07608       39.73064
H         90.95783       85.97602       38.48693
H         90.78400       88.04123       37.27975
H         91.57316       86.76432       36.29908
N         93.94322       85.48799       39.41672
C         94.94060       84.42796       39.49528
C         96.05767       84.53218       38.47979
O         96.27487       83.59146       37.73021
H         93.86349       86.10427       40.23697
H         94.43226       83.44212       39.41801
H         95.42062       84.47315       40.49700
N         96.85195       85.63506       38.45722
C         98.04994       85.78968       37.63301
C         99.29525       86.06551       38.48908
O        100.35142       86.33068       37.93255
C         97.80649       86.88601       36.57404
C         97.49340       88.26724       37.08715
O         97.47186       88.55254       38.40240
O         97.25106       89.15150       36.28272
H         96.60047       86.40458       39.08479
H         98.25658       84.85920       37.06048
H         96.94846       86.55787       35.94817
H         98.69925       86.95552       35.91513
N         99.24664       85.99542       39.85056
C        100.35526       86.27885       40.74623
C        100.79937       87.71630       40.65970
O        101.99530       87.95659       40.62721
H         98.37533       85.70834       40.30437
H        101.20415       85.58356       40.56892
H         99.99980       86.11632       41.78825
N         99.87756       88.71941       40.69282
C        100.18854       90.15426       40.70107
C         98.94061       90.97707       41.03528
O         97.82852       90.46461       41.00093
C        100.78341       90.69598       39.35699
C        102.20611       90.25846       38.98875
O         99.91640       90.43618       38.28535
H         98.89524       88.42134       40.78285
H        100.89973       90.33674       41.53716
H        100.86788       91.79942       39.46407
H         99.93868       89.45775       38.11934
H        102.54513       90.83235       38.10012
H        102.90412       90.46928       39.82673
H        102.25220       89.19377       38.69477
N         99.07817       92.27360       41.43401
C         97.96137       93.11463       41.85149
C         98.00048       94.40709       41.04879
O         99.04360       95.04621       41.00585
C         98.04100       93.39955       43.38374
C         98.22208       92.07781       44.18228
C         96.76370       94.13778       43.84299
C         98.39503       92.28196       45.68922
H        100.02985       92.66580       41.51367
H         96.99238       92.59237       41.68131
H         98.92806       94.04101       43.58280
H         99.14776       91.57137       43.83534
H         97.36381       91.39388       44.00104
H         96.81200       94.41309       44.91466
H         96.62880       95.08204       43.28412
H         95.86599       93.50031       43.68036
H         97.47829       92.69602       46.15389
H         98.59909       91.30249       46.17114
H         99.25273       92.95900       45.88976
N         96.88039       94.88467       40.44075
C         96.83122       96.14870       39.71045
C         96.20398       97.20822       40.59285
O         95.81602       96.90381       41.70633
C         96.02888       95.99016       38.39166
C         96.68255       94.95760       37.46025
O         94.69393       95.65234       38.69987
H         95.99888       94.38751       40.59891
H         97.85948       96.49871       39.47113
H         96.02191       96.95766       37.84577
H         94.35299       94.97866       38.05621
H         96.66557       93.96511       37.94316
H         96.11623       94.89218       36.50580
H         97.72881       95.24452       37.22719
N         96.10821       98.49642       40.17655
C         95.50676       99.54694       40.99491
C         94.01906       99.29259       41.20196
O         93.57638       99.28564       42.34184
C         95.75521      100.94010       40.37221
C         97.26391      101.27361       40.41869
O         95.23576      100.98374       39.06170
H         96.49668       98.73767       39.25236
H         95.99621       99.56483       41.99630
H         95.23489      101.70414       40.99142
H         95.81745      101.55087       38.49262
H         97.85742      100.55620       39.81475
H         97.44293      102.29753       40.02979
H         97.63092      101.24053       41.46771
N         93.19330       99.05844       40.14191
C         91.75293       98.82627       40.26247
C         91.45515       97.68266       41.21811
O         90.65925       97.86645       42.12869
C         91.14652       98.59544       38.85750
C         89.61754       98.41480       38.88835
C         88.95920       98.54177       37.50215
C         89.44438       97.51713       36.46633
N         88.73313       97.69522       35.19846
H         93.61502       99.03123       39.20090
H         91.27645       99.74612       40.66995
H         91.61912       97.71663       38.36613
H         91.37858       99.50190       38.25612
H         89.17449       99.21884       39.51525
H         89.36456       97.43555       39.35051
H         89.14778       99.56512       37.10925
H         87.86160       98.42319       37.63552
H         89.26848       96.48683       36.84545
H         90.53329       97.64906       36.28630
H         87.70828       97.53544       35.33464
H         88.88914       98.66149       34.82819
H         89.09225       97.00582       34.49944
N         92.10838       96.49627       41.10646
C         91.92116       95.37935       42.03243
C         92.17275       95.81891       43.46975
O         91.29756       95.63954       44.30536
C         92.85356       94.21298       41.64772
C         92.47234       93.61483       40.27696
C         93.40713       92.50733       39.91154
O         94.60010       92.71378       39.78593
O         92.95213       91.25799       39.78578
H         92.80385       96.41058       40.35151
H         90.87340       95.00940       41.96902
H         92.77382       93.40671       42.41156
H         93.90530       94.57354       41.64076
H         92.49851       94.37444       39.47354
H         91.43749       93.21368       40.34042
N         93.32872       96.43992       43.82030
C         93.58987       96.91965       45.15980
H         94.57485       97.43466       45.19032
H         92.80691       97.64794       45.46200
H         93.60851       96.07020       45.87338
H         94.03520       96.60862       43.10331
Ca        94.54741       89.72838       40.14031
O         94.59846       91.94830       36.71944
H         94.66682       92.67380       36.04963
H         94.34429       91.15055       36.19277
O         97.40063       91.59115       37.70906
H         97.69124       91.90390       36.81509
H         97.96978       92.09246       38.34521

Ca 1.0



