%chk=holoCaM.loop2.water2.frame465.chk
%nprocshared=20
%mem=10GB
%nosave
#b3lyp/svp scf=(tight,noincore,xqc) Test 
#IOP(5/87=12) Density=Current Pop=(MK,readradii) iop(6/33=2) iop(6/42=6)

holoCaM.loop2.water2.frame465 

   -2  1 
C          4.07011       83.41341       67.51929
C          4.86747       84.59586       67.05558
O          6.08597       84.54731       67.14967
H          2.98670       83.55000       67.32140
H          4.41438       82.51010       66.97126
H          4.22310       83.25560       68.60699
N          4.24888       85.70053       66.54480
C          4.98107       86.83381       65.99602
C          4.79658       88.05927       66.87664
O          3.67488       88.51422       67.05477
C          4.49933       87.09015       64.55891
C          5.31426       88.11801       63.82978
O          5.00970       88.41720       62.69514
O          6.39261       88.69284       64.38444
H          3.21739       85.73302       66.52684
H          6.06018       86.58518       65.94726
H          3.43365       87.41117       64.58058
H          4.56401       86.14544       63.97621
N          5.87749       88.62507       67.48842
C          5.78199       89.75027       68.41400
C          5.38588       91.07606       67.75764
O          5.08737       92.00606       68.49356
C          7.12619       89.92911       69.13570
H          6.79830       88.18360       67.34885
H          5.01955       89.48612       69.18011
H          7.06711       90.73459       69.89671
H          7.40765       88.98435       69.65077
H          7.92660       90.17833       68.40435
N          5.42467       91.26532       66.40502
C          5.09534       92.53252       65.73941
C          4.07215       92.36119       64.61646
O          3.72515       93.36084       64.00145
C          6.36900       93.23612       65.21187
C          7.17212       92.40955       64.25909
O          7.72098       91.28669       64.73132
O          7.39902       92.78463       63.12082
H          5.75250       90.49052       65.82307
H          4.65276       93.24248       66.47198
H          7.03028       93.47268       66.07465
H          6.09129       94.20048       64.73407
N          3.51022       91.15435       64.31078
C          2.45955       90.99904       63.31652
C          2.88252       91.14823       61.86260
O          1.99417       91.06866       61.02523
H          3.74860       90.32111       64.86311
H          1.65319       91.73302       63.54257
H          2.01997       89.98439       63.41831
N          4.17086       91.37025       61.45717
C          4.49538       91.59678       60.04227
C          4.30967       90.36988       59.14091
O          4.34871       90.53151       57.92937
C          5.92113       92.15888       59.86427
C          7.01420       91.14376       60.10854
N          7.88004       90.82623       59.11760
O          7.12636       90.60976       61.20138
H          4.91077       91.46234       62.16708
H          3.80274       92.39598       59.69408
H          6.06284       93.02939       60.53964
H          6.01057       92.53530       58.82179
H          7.80480       91.25800       58.18462
H          8.63568       90.14943       59.28429
N          4.15914       89.11677       59.65419
C          3.97846       87.91325       58.85878
C          5.10194       86.90126       59.02460
O          4.88880       85.76389       58.62695
H          4.15798       88.99409       60.66619
H          3.86664       88.12891       57.77450
H          3.02975       87.44401       59.19861
N          6.33982       87.23315       59.51054
C          7.44233       86.26595       59.61251
C          8.08357       86.29099       60.99721
O          7.70138       87.11175       61.82134
C          8.49983       86.53370       58.51371
C          7.89611       86.41931       57.10963
O          9.05670       87.80801       58.68204
H          6.53354       88.21607       59.75215
H          7.05961       85.23332       59.45380
H          9.29783       85.76111       58.60393
H          9.92580       87.81089       58.20177
H          7.45717       85.40989       56.96080
H          7.10823       87.18614       56.95370
H          8.68788       86.57379       56.34661
N          9.05627       85.38478       61.32684
C          9.68541       85.31228       62.64537
C         11.21446       85.39512       62.55094
O         11.84345       84.53862       61.94665
C          9.19803       84.04499       63.42152
C          9.47418       82.71105       62.67370
C          7.70248       84.20542       63.76349
C          9.03655       81.46894       63.45146
H          9.32925       84.68019       60.62596
H          9.36041       86.17735       63.26205
H          9.74138       84.01062       64.38741
H         10.56245       82.60407       62.50160
H          8.95739       82.69679       61.69174
H          7.53454       85.15314       64.31687
H          7.08119       84.21464       62.84408
H          7.35109       83.39501       64.43246
H          9.51350       81.45204       64.44968
H          7.93603       81.43372       63.57533
H          9.33785       80.55826       62.89219
N         11.87568       86.42171       63.16271
C         13.33562       86.56377       63.24524
C         13.90813       85.44705       64.14454
O         13.12933       84.64493       64.62976
C         13.63459       87.98230       63.81762
C         15.02656       88.53776       63.64333
O         15.31884       89.73665       64.18232
O         15.86076       87.98237       62.94873
H         11.30061       87.14612       63.60493
H         13.74964       86.50809       62.21472
H         13.34590       87.99909       64.89025
H         12.99018       88.71997       63.29091
N         15.24034       85.31956       64.42183
C         15.79396       84.26277       65.27210
C         15.23077       84.29797       66.69896
O         14.75704       83.25356       67.12475
C         17.34446       84.31020       65.26465
C         17.98423       83.18597       66.04799
C         17.83148       81.84964       65.63804
C         18.76219       83.46770       67.18591
C         18.44929       80.81707       66.35163
C         19.37329       82.43159       67.89894
C         19.21919       81.10769       67.48088
H         15.90434       85.97090       63.99960
H         15.51920       83.28411       64.81774
H         17.70555       85.27434       65.65359
H         17.70878       84.24713       64.21658
H         17.24612       81.60716       64.76048
H         18.89646       84.48802       67.52323
H         18.33509       79.79100       66.02656
H         19.97017       82.65569       68.77383
H         19.69838       80.30760       68.03058
N         15.22587       85.41097       67.50892
C         14.68395       85.43176       68.86932
C         13.29139       84.84001       68.96573
O         13.03774       84.00181       69.81842
C         14.62177       86.92949       69.21362
C         15.80564       87.46937       68.45654
C         15.68457       86.73423       67.12623
H         15.39052       84.90254       69.54709
H         13.72741       87.40312       68.74704
H         14.59945       87.15220       70.30171
H         15.85133       88.57578       68.36864
H         16.72392       87.10983       68.97480
H         14.92047       87.19335       66.46526
H         16.67368       86.77042       66.64837
N         12.34728       85.23866       68.07547
C         10.96888       84.76461       68.04415
C         10.92945       83.25922       67.87173
O         10.28914       82.58781       68.66832
C         10.22657       85.45581       66.88541
C         10.14385       86.97348       67.10129
C          9.56665       87.64222       65.90621
O         10.29889       88.54185       65.22870
O          8.43011       87.39331       65.55028
H         12.65243       85.90574       67.35178
H         10.44849       85.03378       68.99136
H          9.19373       85.05113       66.79353
H         10.77635       85.25640       65.94144
H         11.14534       87.41837       67.26268
H          9.52348       87.20264       67.99467
N         11.63059       82.66266       66.87003
C         11.68338       81.23338       66.65420
H         12.72681       80.88306       66.79618
H         11.01939       80.67612       67.34632
H         11.38480       81.00823       65.61238
H         12.19197       83.24710       66.24505
Ca         9.18639       89.88250       63.85219
O         10.66633       88.79838       61.56813
H         11.30384       89.39268       61.10012
H         10.36381       88.16165       60.87552
O         10.28592       91.90610       62.02679
H         10.10868       92.87547       62.11728
H         11.15654       91.76796       62.47821

Ca 1.0



