%chk=holoCaM-CaMKII.loop4.water1.frame333.chk
%nprocshared=20
%mem=10GB
%nosave
#b3lyp/svp scf=(tight,noincore,xqc) Test 
#IOP(5/87=12) Density=Current Pop=(MK,readradii) iop(6/33=2) iop(6/42=6)

holoCaM-CaMKII.loop4.water1.frame333 

   -3  1 
C         25.00892       51.07464       54.38746
C         24.48193       49.74254       54.83177
O         25.22591       48.97416       55.42305
H         25.85631       50.92517       53.68766
H         24.22437       51.66671       53.86891
H         25.35321       51.65065       55.27138
N         23.18764       49.40682       54.58855
C         22.59420       48.15001       55.01733
C         23.25294       46.96767       54.31732
O         23.34614       46.96509       53.09789
C         21.08826       48.16395       54.71296
C         20.35174       46.99996       55.30538
O         19.16665       46.88516       55.07366
O         20.95510       46.10612       56.11161
H         22.58878       50.09270       54.10224
H         22.69910       48.07423       56.12057
H         20.93569       48.17641       53.61212
H         20.63018       49.08209       55.14303
N         23.66458       45.89361       55.04269
C         24.25722       44.68812       54.47658
C         23.18896       43.59336       54.39295
O         23.05301       42.97991       53.34384
C         25.50646       44.26899       55.32443
C         26.54282       45.43007       55.36221
C         26.14103       42.98047       54.76636
C         27.82319       45.12652       56.15266
H         23.49473       45.90427       56.05593
H         24.61370       44.87408       53.43798
H         25.18085       44.05698       56.36775
H         26.06613       46.31475       55.83529
H         26.83743       45.71222       54.32842
H         26.98388       42.64370       55.40461
H         25.40737       42.14861       54.76545
H         26.51181       43.14116       53.73224
H         28.45064       46.04247       56.20059
H         27.59646       44.79859       57.18619
H         28.42601       44.33890       55.65851
N         22.38951       43.30693       55.45798
C         21.40645       42.21765       55.49138
C         20.29938       42.35085       54.44548
O         20.13607       41.45615       53.62831
C         20.73536       42.16230       56.88559
C         21.74546       42.05259       57.99326
O         21.88905       43.06530       58.87443
O         22.47827       41.08002       58.06274
H         22.51759       43.87381       56.30743
H         21.94526       41.25883       55.32464
H         20.01794       41.31562       56.94377
H         20.16387       43.09706       57.03464
N         19.45322       43.41540       54.48073
C         18.27019       43.58599       53.64634
C         17.01305       43.66508       54.50529
O         16.03985       42.98303       54.21976
H         19.65607       44.15096       55.16449
H         18.15872       42.77372       52.89430
H         18.37956       44.54402       53.09458
N         16.98501       44.48719       55.58960
C         15.84906       44.73321       56.47209
C         15.55550       46.23057       56.56269
O         14.71685       46.61968       57.36374
C         16.12180       44.11870       57.86828
C         17.55078       44.18055       58.33385
O         18.12708       43.12962       58.56590
O         18.23576       45.32838       58.48151
H         17.84360       44.99124       55.83396
H         14.91554       44.25687       56.10057
H         15.88029       43.03475       57.79583
H         15.43592       44.54267       58.63210
N         16.17468       47.12829       55.74498
C         15.95136       48.55760       55.78871
C         16.37657       49.15704       57.10296
O         15.58262       49.86449       57.70508
H         16.81870       46.80063       55.01826
H         14.88511       48.78565       55.57487
H         16.56800       49.03189       54.99311
N         17.64049       48.95949       57.57669
C         18.17314       49.63586       58.76040
C         19.67513       49.44569       58.89957
O         20.26260       48.58283       58.25936
C         17.38805       49.30074       60.06852
C         17.21296       47.80895       60.42557
C         18.41613       47.14213       61.05592
N         18.31943       46.57302       62.28287
O         19.47513       47.08321       60.45599
H         18.26201       48.35823       57.01760
H         18.05294       50.72576       58.56992
H         16.36139       49.69069       59.93001
H         17.79758       49.85682       60.93973
H         16.87914       47.25229       59.52667
H         16.38159       47.74893       61.16203
H         17.43288       46.58352       62.80885
H         19.13168       46.09997       62.70645
N         20.37136       50.30774       59.68627
C         21.81499       50.27603       59.86563
C         22.09001       50.15063       61.34522
O         21.62669       50.99066       62.10619
C         22.45097       51.55990       59.25791
C         23.95911       51.65697       59.55234
C         22.24491       51.58304       57.73231
H         19.85044       51.06069       60.16399
H         22.27028       49.41095       59.34031
H         21.96183       52.45646       59.69945
H         24.37718       52.58494       59.10597
H         24.14661       51.70494       60.64512
H         24.50314       50.78712       59.13048
H         22.68085       52.50649       57.29487
H         22.73989       50.70543       57.26068
H         21.16601       51.55988       57.47467
N         22.87429       49.14141       61.81810
C         23.21815       49.00470       63.22625
C         24.65058       49.45020       63.44654
O         25.29940       49.88082       62.50313
C         22.91463       47.58354       63.77215
C         23.92347       46.50755       63.42942
N         24.08469       46.04569       62.17210
O         24.59172       46.01964       64.32940
H         23.30441       48.50232       61.14059
H         22.58564       49.69389       63.82724
H         21.88997       47.26677       63.47985
H         22.90929       47.66351       64.88088
H         23.51129       46.39303       61.39600
H         24.77005       45.29889       61.98417
N         25.19915       49.40590       64.68830
C         26.53103       49.90919       64.99911
C         27.60504       49.26996       64.13165
O         28.42025       50.00016       63.58700
C         26.82520       49.69696       66.49508
C         28.11928       50.34676       66.91375
C         28.28340       51.73975       66.80526
C         29.16922       49.56933       67.42407
C         29.48089       52.34186       67.19658
C         30.36610       50.17424       67.81658
C         30.52564       51.56349       67.70364
O         31.67413       52.15957       68.08036
H         24.62949       49.02224       65.45721
H         26.53237       51.00404       64.80189
H         26.83625       48.60494       66.70735
H         26.00944       50.15111       67.09977
H         27.48521       52.36266       66.42086
H         29.06217       48.49586       67.51761
H         29.59460       53.41511       67.10717
H         31.16741       49.56183       68.20874
H         32.41895       51.65739       68.43997
N         27.64980       47.92274       63.93038
C         28.62852       47.28639       63.04818
C         28.53164       47.83463       61.63216
O         29.53874       48.28848       61.10634
C         28.43984       45.75351       63.00122
C         28.75446       45.08179       64.34540
C         28.65639       43.58730       64.22980
O         29.74276       42.82185       64.45026
O         27.59541       43.05884       63.93766
H         26.93987       47.33899       64.39628
H         29.65545       47.48620       63.42944
H         29.15027       45.33914       62.25014
H         27.40578       45.50160       62.67555
H         28.05752       45.42984       65.13571
H         29.79113       45.34871       64.64654
N         27.35100       47.81456       60.95073
C         27.22049       48.25946       59.55952
C         27.53439       49.73878       59.36254
O         27.63356       50.15837       58.21700
C         25.79208       47.99070       59.04471
C         25.46522       46.49259       59.01287
C         24.03619       46.21347       58.66091
O         23.66129       45.05801       58.58156
O         23.15452       47.20870       58.45439
H         26.52555       47.44008       61.44122
H         27.94239       47.67649       58.94354
H         25.67007       48.38545       58.01217
H         25.08389       48.52568       59.70919
H         25.66207       46.02011       59.99043
H         26.11820       46.00735       58.27062
N         27.68814       50.59575       60.40787
C         28.00970       51.99262       60.22452
H         28.99485       52.08861       59.72063
H         27.22541       52.48822       59.61488
H         28.06677       52.49727       61.21284
H         27.56118       50.26319       61.36671
Ca        20.37858       44.76096       58.91622
O         21.68963       44.32099       61.48811
H         22.54944       43.83945       61.38917
H         21.60498       44.48761       62.45943

Ca 1.0



