%chk=holoCaM-CaMKII.loop1.water2.frame288.chk
%nprocshared=20
%mem=10GB
%nosave
#b3lyp/svp scf=(tight,noincore,xqc) Test 
#IOP(5/87=12) Density=Current Pop=(MK,readradii) iop(6/33=2) iop(6/42=6)

holoCaM-CaMKII.loop1.water2.frame288 

   0  1 
C         60.11336       30.42427       67.09431
C         61.26291       30.09483       66.19347
O         61.61369       28.92756       66.09418
H         59.21621       29.87077       66.73987
H         60.34655       30.11750       68.13290
H         59.87904       31.50913       67.07373
N         61.85975       31.06563       65.44756
C         62.82702       30.73858       64.41382
C         64.17781       30.29939       65.00451
O         64.88673       31.12732       65.55908
C         62.94996       31.92662       63.43618
C         63.62867       31.47512       62.19666
O         63.11046       30.44595       61.49752
O         64.67963       31.98160       61.85958
H         61.50783       32.03347       65.52206
H         62.37457       29.90135       63.83607
H         63.47937       32.78055       63.91667
H         61.94165       32.27956       63.13492
N         64.55691       28.98473       64.96955
C         65.76614       28.44921       65.60497
C         67.09599       28.82465       64.94418
O         68.11605       28.62294       65.58860
C         65.70136       26.89443       65.69910
C         65.76498       26.17900       64.32842
C         65.75867       24.65068       64.46621
C         65.73461       23.91794       63.10756
N         66.89911       24.22658       62.27343
H         63.87602       28.31636       64.59850
H         65.77336       28.83828       66.64721
H         64.76524       26.60074       66.22316
H         66.55755       26.54130       66.31398
H         66.68978       26.48236       63.80010
H         64.89801       26.46501       63.71921
H         64.85021       24.34289       65.02855
H         66.65347       24.33024       65.04195
H         64.80454       24.17324       62.55210
H         65.71811       22.82366       63.30958
H         66.86784       25.21953       61.95010
H         67.78419       24.04650       62.80024
H         66.88115       23.61481       61.42535
N         67.18605       29.22459       63.64139
C         68.47337       29.38892       62.93816
C         68.67345       30.78908       62.36512
O         69.72276       31.03303       61.78510
C         68.62713       28.28409       61.85183
C         67.56028       28.31018       60.79243
O         67.44418       27.38929       60.00052
O         66.69325       29.32845       60.77781
H         66.30895       29.33164       63.11438
H         69.31687       29.23276       63.64462
H         68.55967       27.30595       62.37528
H         69.62479       28.33887       61.36522
N         67.74056       31.77011       62.51383
C         67.92883       33.13336       62.04799
C         68.04099       33.24914       60.54346
O         69.00940       33.81943       60.06274
H         66.87024       31.57171       63.02462
H         68.82266       33.57475       62.54052
H         67.04546       33.73448       62.35690
N         67.04067       32.78427       59.74588
C         66.95991       33.00321       58.30463
C         65.72320       33.84380       57.94741
O         65.50244       34.09306       56.77029
C         66.96416       31.64102       57.57300
C         65.73569       30.80236       57.80078
O         65.66179       29.69124       57.30159
O         64.69806       31.27406       58.51562
H         66.27104       32.27705       60.19115
H         67.85522       33.56022       57.95259
H         67.85820       31.06878       57.90598
H         67.05222       31.80929       56.47838
N         64.87625       34.31638       58.91444
C         63.68208       35.10601       58.66170
C         62.60709       34.32996       57.93038
O         62.11354       34.82642       56.93401
H         65.08117       34.14097       59.90722
H         63.95093       36.03665       58.11441
H         63.25206       35.40616       59.64194
N         62.16185       33.13370       58.41816
C         61.10729       32.29037       57.82528
C         60.81406       31.11738       58.76460
O         61.74602       30.44569       59.17708
C         61.44508       31.69831       56.42113
C         61.36173       32.65554       55.22357
O         62.67271       31.02177       56.42271
H         62.59514       32.81567       59.29942
H         60.17044       32.88058       57.72615
H         60.64216       30.95652       56.20882
H         63.38284       31.71448       56.42982
H         61.41830       32.06587       54.28476
H         60.39370       33.20158       55.23299
H         62.20751       33.36321       55.18283
N         59.53118       30.80429       59.12338
C         59.19173       29.77980       60.11449
C         58.45620       28.59995       59.46297
O         57.34551       28.76017       58.97955
C         58.36647       30.46133       61.25247
C         59.26094       31.50123       61.98281
C         57.78501       29.44447       62.25258
C         58.50801       32.39898       62.96511
H         58.75643       31.33827       58.70234
H         60.11680       29.37144       60.57410
H         57.50757       30.98599       60.77670
H         59.72858       32.18364       61.24181
H         60.07550       30.96824       62.51997
H         57.12220       28.72159       61.73656
H         58.59364       28.89525       62.77203
H         57.14930       29.94831       63.00763
H         59.22047       33.12225       63.41641
H         57.72057       32.97005       62.42866
H         58.05074       31.82033       63.79105
N         59.05431       27.36752       59.43705
C         58.46146       26.12974       58.92531
C         57.38371       25.60740       59.87006
O         57.14773       26.20458       60.90819
C         59.54247       24.99898       58.78398
C         60.72433       25.36355       57.88144
O         60.00396       24.55657       60.03593
H         60.00689       27.31370       59.78582
H         58.04553       26.32342       57.91274
H         59.07198       24.12178       58.29481
H         60.62562       25.23579       60.39845
H         61.30824       26.19059       58.32327
H         61.40048       24.48575       57.78735
H         60.37012       25.65427       56.87186
N         56.73785       24.44026       59.59642
C         55.84560       23.75949       60.53379
C         56.60069       23.31279       61.78734
O         56.14003       23.59985       62.88165
C         55.17223       22.53234       59.86588
C         54.22657       22.96600       58.73706
O         56.14402       21.64828       59.36659
H         56.92345       23.98913       58.68847
H         55.02274       24.44535       60.84011
H         54.56027       22.01663       60.64300
H         55.68333       20.79091       59.17166
H         54.77387       23.49333       57.92877
H         53.72654       22.07611       58.30048
H         53.44136       23.64205       59.13838
N         57.76797       22.60563       61.69517
C         58.51629       22.09137       62.84858
C         58.81851       23.19094       63.85164
O         58.46684       23.04659       65.01492
C         59.81623       21.40254       62.36093
C         60.63040       20.77259       63.50847
C         61.81062       19.91257       63.01927
C         62.88354       20.69751       62.24673
N         63.98085       19.81439       61.84728
H         58.14664       22.42780       60.75295
H         57.89702       21.31810       63.35638
H         60.44470       22.13766       61.81432
H         59.52627       20.59425       61.65426
H         59.95920       20.10151       64.08726
H         61.00458       21.56437       64.19351
H         61.42038       19.09213       62.37822
H         62.28900       19.45271       63.91189
H         63.28392       21.51285       62.88910
H         62.44327       21.15062       61.33329
H         64.69405       20.36690       61.31876
H         64.43534       19.39651       62.69167
H         63.62126       19.05053       61.22913
N         59.43123       24.33590       63.45371
C         59.70267       25.47117       64.33269
C         58.41352       25.92380       65.00396
O         58.36281       25.94141       66.22587
C         60.36054       26.61332       63.51770
C         61.77988       26.21953       63.05131
C         62.38329       27.22968       62.11382
O         63.54530       27.82789       62.39373
O         61.85792       27.47046       61.04869
H         59.66928       24.41330       62.45804
H         60.41208       25.16741       65.13545
H         60.44106       27.53229       64.13699
H         59.71553       26.83909       62.63995
H         61.76087       25.25169       62.51233
H         62.42855       26.09623       63.94543
N         57.31521       26.24158       64.26635
C         56.02898       26.58720       64.83973
H         55.27117       25.84453       64.50836
H         56.04365       26.58888       65.94981
H         55.72095       27.59188       64.48495
H         57.37916       26.19977       63.24548
Ca        64.54706       29.29722       60.23278
O         64.08502       26.03421       59.42293
H         64.99860       26.39193       59.29239
H         64.18151       25.35437       60.13566
O         62.84464       28.11428       57.72154
H         62.20199       28.72568       57.28656
H         62.94049       27.37082       57.07572

Ca 1.0



