%chk=holoCaM-CaMKII.loop3.water2.frame276.chk
%nprocshared=20
%mem=10GB
%nosave
#b3lyp/svp scf=(tight,noincore,xqc) Test 
#IOP(5/87=12) Density=Current Pop=(MK,readradii) iop(6/33=2) iop(6/42=6)

holoCaM-CaMKII.loop3.water2.frame276 

   0  1 
C         52.87335       21.62679       80.83993
C         53.21290       20.61120       81.89296
O         54.24813       19.96948       81.78727
H         51.90779       22.13131       81.05849
H         53.66951       22.39809       80.79182
H         52.78808       21.12467       79.85365
N         52.37631       20.41100       82.94763
C         52.63028       19.43340       83.99890
C         52.66535       18.02699       83.40938
O         51.76271       17.65883       82.67069
C         51.54505       19.55087       85.08835
C         51.79146       18.69584       86.30545
O         50.88386       18.69044       87.29657
O         52.79979       18.01807       86.41653
H         51.52049       20.98534       83.00586
H         53.59968       19.67685       84.48659
H         50.56558       19.29173       84.64378
H         51.49649       20.60391       85.44137
N         53.68947       17.18695       83.72373
C         53.87186       15.84083       83.18067
C         52.63222       14.96838       83.35684
O         52.14321       14.45719       82.35937
C         55.11553       15.20990       83.84214
C         55.54666       13.86487       83.24773
C         56.81682       13.37345       83.96033
C         57.33835       12.06296       83.36184
N         58.54872       11.62254       84.05689
H         54.39161       17.53684       84.39228
H         54.08063       15.93513       82.09122
H         54.92509       15.08424       84.92470
H         55.96662       15.91637       83.71416
H         55.75854       13.99938       82.16456
H         54.73637       13.11357       83.36813
H         56.59671       13.22300       85.04055
H         57.61293       14.14541       83.86607
H         57.57126       12.21738       82.28467
H         56.55772       11.27511       83.44594
H         59.29508       12.35186       83.98072
H         58.33833       11.44065       85.06531
H         58.89529       10.73901       83.61857
N         52.04808       14.78493       84.57668
C         50.83066       13.98737       84.77409
C         49.61490       14.85781       85.07554
O         48.54151       14.29406       85.24489
C         51.04989       12.86927       85.82659
C         51.64923       13.38171       87.09309
O         51.05779       14.35533       87.79769
O         52.76808       13.01321       87.41687
H         52.45328       15.27471       85.38893
H         50.55076       13.46019       83.83687
H         51.76042       12.12887       85.39770
H         50.09903       12.33766       86.04298
N         49.66144       16.22487       85.05932
C         48.45677       17.04044       85.15169
C         47.74604       16.96984       86.48549
O         46.63052       17.46423       86.56226
H         50.54951       16.70706       84.87584
H         47.75987       16.70034       84.35440
H         48.68748       18.10469       84.94890
N         48.30815       16.37782       87.57734
C         47.58704       16.19257       88.83530
C         47.21490       17.49222       89.54785
O         46.51819       17.40385       90.55160
C         48.39069       15.27791       89.78791
C         49.58379       15.96814       90.40866
N         49.71429       16.03450       91.75230
O         50.43619       16.47575       89.69954
H         49.25214       15.98614       87.49003
H         46.65290       15.64441       88.57929
H         48.72449       14.37611       89.22962
H         47.71763       14.92524       90.59866
H         49.01121       15.61466       92.37798
H         50.53240       16.50041       92.16731
N         47.64106       18.71961       89.12126
C         47.28985       19.96444       89.78936
C         48.49069       20.77250       90.25324
O         48.27297       21.84315       90.79563
H         48.22671       18.79443       88.27750
H         46.64496       19.78013       90.67570
H         46.71009       20.58806       89.07620
N         49.77855       20.34999       90.06885
C         50.94333       21.13269       90.49152
C         52.23095       20.60876       89.86071
O         52.37613       19.41010       89.67858
C         51.05380       21.29642       92.02685
C         50.85610       20.04600       92.85790
C         49.55437       19.64757       93.21767
C         51.94885       19.31962       93.35696
C         49.34814       18.54689       94.05085
C         51.74039       18.20996       94.18881
C         50.43726       17.82433       94.54172
O         50.21813       16.76816       95.35123
H         49.94162       19.46020       89.58453
H         50.83425       22.15668       90.07134
H         50.29017       22.02515       92.37276
H         52.02407       21.78144       92.27275
H         48.69207       20.20182       92.87665
H         52.95953       19.61602       93.10952
H         48.33884       18.26317       94.32375
H         52.59021       17.65629       94.56709
H         50.94024       16.24097       95.72078
N         53.18972       21.50141       89.44691
C         54.36308       21.12507       88.65857
C         55.64347       21.27344       89.47738
O         56.02467       22.37313       89.84658
C         54.40134       21.91562       87.30170
C         55.51919       21.35641       86.38219
C         54.53587       23.44682       87.48228
C         55.58034       22.01198       84.99905
H         53.06037       22.49363       89.68261
H         54.26578       20.05346       88.38101
H         53.42938       21.73202       86.79153
H         55.33117       20.27239       86.22896
H         56.51219       21.47384       86.86366
H         54.43696       23.96936       86.51002
H         53.72971       23.85794       88.11892
H         55.51853       23.72631       87.91129
H         55.88468       23.07668       85.07054
H         56.33986       21.49384       84.38109
H         54.60066       21.94091       84.48375
N         56.34816       20.15675       89.81020
C         57.61160       20.14968       90.53823
C         58.75958       20.65661       89.67322
O         58.55598       20.96708       88.50956
C         57.91772       18.70711       90.99967
O         58.05825       17.86074       89.89124
H         55.94095       19.25496       89.56052
H         57.50777       20.77790       91.44921
H         57.07188       18.36023       91.63589
H         58.84726       18.67309       91.60526
H         58.00613       16.93146       90.23489
N         60.01789       20.73309       90.18911
C         61.19568       21.10041       89.40795
C         61.47978       20.06644       88.33063
O         61.62206       20.43241       87.17284
C         62.41989       21.20472       90.32545
H         60.14592       20.50480       91.18701
H         61.04640       22.10365       88.94912
H         62.24173       21.97724       91.10312
H         62.62806       20.23613       90.82862
H         63.31426       21.50146       89.73638
N         61.57047       18.74485       88.65854
C         61.88554       17.67607       87.71187
C         60.96649       17.69992       86.51074
O         61.44892       17.69522       85.38675
C         61.77068       16.31332       88.41245
H         61.39172       18.48448       89.64115
H         62.93389       17.79072       87.35850
H         62.47333       16.26462       89.27105
H         60.73842       16.14989       88.79358
H         62.02150       15.49178       87.70768
N         59.62205       17.74661       86.68549
C         58.66091       17.76235       85.58885
C         58.92317       18.94524       84.67557
O         59.16453       18.73562       83.49458
C         57.22930       17.78998       86.15512
C         56.93582       16.49836       86.94127
C         55.59211       16.54424       87.58185
O         54.68947       15.60441       87.31308
O         55.31005       17.41787       88.37510
H         59.27885       17.79484       87.65442
H         58.76794       16.82988       84.98888
H         56.49750       17.87882       85.32527
H         57.11465       18.67525       86.81972
H         57.66993       16.33913       87.75263
H         56.99774       15.62507       86.25684
N         58.93764       20.21533       85.15920
C         59.26491       21.35259       84.32678
H         60.28898       21.23261       83.91242
H         58.54106       21.44041       83.49045
H         59.23575       22.28445       84.93061
H         58.74080       20.37868       86.15364
Ca        52.69650       15.74974       88.29239
O         54.03124       17.56988       91.48218
H         54.39123       17.65134       92.40053
H         54.82484       17.37037       90.92714
O         52.92179       14.47678       91.04782
H         52.43368       14.22151       91.87014
H         52.55827       13.87684       90.34900

Ca 1.0



