%chk=holoCaM.loop1.water2.frame140.chk
%nprocshared=20
%mem=10GB
%nosave
#b3lyp/svp scf=(tight,noincore,xqc) Test 
#IOP(5/87=12) Density=Current Pop=(MK,readradii) iop(6/33=2) iop(6/42=6)

holoCaM.loop1.water2.frame140 

   0  1 
C         -1.84847       75.20135       -4.10583
C         -2.04354       73.73585       -4.35235
O         -3.01077       73.37365       -5.00199
H         -2.73580       75.59328       -3.56326
H         -0.94998       75.39169       -3.48191
H         -1.74174       75.73907       -5.06953
N         -1.16829       72.82420       -3.84783
C         -1.37875       71.38501       -3.95013
C         -2.63511       71.01541       -3.16899
O         -2.71048       71.35871       -1.99715
C         -0.15012       70.64447       -3.38983
C         -0.32231       69.16021       -3.45925
O         -0.47269       68.60723       -4.53507
O         -0.31736       68.43567       -2.32644
H         -0.33714       73.17009       -3.34273
H         -1.47373       71.10249       -5.01977
H          0.01741       70.94114       -2.33220
H          0.75319       70.92252       -3.97788
N         -3.65968       70.32344       -3.75193
C         -4.92308       70.04062       -3.08244
C         -5.14300       68.55376       -2.81060
O         -6.11769       68.25691       -2.13340
C         -6.10419       70.56513       -3.94212
C         -6.06698       72.05995       -4.30555
C         -6.09505       72.97909       -3.07828
C         -6.17978       74.45654       -3.48845
N         -6.17770       75.32306       -2.30998
H         -3.55823       69.99795       -4.71453
H         -4.94067       70.53713       -2.08973
H         -7.06144       70.36340       -3.41467
H         -6.12040       69.99788       -4.90059
H         -6.96065       72.27332       -4.93330
H         -5.17397       72.27267       -4.92318
H         -5.17427       72.82385       -2.47843
H         -6.98164       72.73056       -2.45536
H         -7.11540       74.62736       -4.06730
H         -5.31565       74.72098       -4.13694
H         -5.28252       75.20470       -1.78194
H         -6.26084       76.31974       -2.61480
H         -6.98662       75.09055       -1.68882
N         -4.33820       67.56307       -3.30813
C         -4.59649       66.13834       -3.05625
C         -3.37255       65.40162       -2.51709
O         -3.28439       64.19112       -2.67092
C         -5.21919       65.47529       -4.30672
C         -4.32904       65.44578       -5.51640
O         -3.05454       65.86708       -5.43815
O         -4.78201       65.07902       -6.58863
H         -3.55377       67.81347       -3.92495
H         -5.37697       66.02406       -2.27416
H         -6.13149       66.06012       -4.56216
H         -5.54153       64.43775       -4.07214
N         -2.42104       66.06628       -1.80751
C         -1.29048       65.43001       -1.15004
C         -0.36591       64.67103       -2.07643
O         -0.00034       63.55362       -1.73938
H         -2.51943       67.08324       -1.67356
H         -1.65209       64.74935       -0.34760
H         -0.69096       66.22587       -0.65835
N          0.07811       65.21823       -3.24231
C          1.08904       64.58728       -4.09197
C          2.27139       65.52496       -4.36461
O          3.16969       65.13317       -5.09689
C          0.44265       64.00715       -5.36881
C         -0.19572       64.98530       -6.30802
O         -0.15636       66.30700       -6.07942
O         -0.76594       64.56673       -7.30163
H         -0.32263       66.11823       -3.53950
H          1.51809       63.69861       -3.57853
H         -0.33934       63.28378       -5.04783
H          1.21187       63.43976       -5.93727
N          2.37566       66.74916       -3.76011
C          3.52375       67.63378       -3.89360
C          3.67808       68.31477       -5.24060
O          4.62962       69.06795       -5.37844
H          1.65836       67.04754       -3.08943
H          4.44783       67.06719       -3.64765
H          3.42290       68.45139       -3.14608
N          2.80409       68.12317       -6.26998
C          2.94272       68.77642       -7.57252
C          1.71137       69.60233       -7.92989
O          0.71798       69.59295       -7.22076
C          3.24734       67.71416       -8.67187
C          4.70732       67.26916       -8.59636
O          2.43265       66.57401       -8.55728
H          2.01438       67.48341       -6.14017
H          3.77692       69.51156       -7.55995
H          3.12020       68.15204       -9.68579
H          1.52361       66.87030       -8.30832
H          4.91435       66.52955       -9.39939
H          5.37570       68.14315       -8.75785
H          4.93656       66.81040       -7.61278
N          1.77295       70.39496       -9.04105
C          0.72429       71.29248       -9.51132
C          0.36743       70.89765      -10.94403
O          1.25888       70.81372      -11.77498
C          1.26193       72.76135       -9.45771
C          1.64188       73.21587       -8.01893
C          0.28894       73.77077      -10.09257
C          0.46832       73.35267       -7.03813
H          2.65049       70.39583       -9.58156
H         -0.18494       71.23081       -8.87733
H          2.19670       72.79873      -10.06101
H          2.13863       74.20932       -8.08221
H          2.38245       72.50797       -7.59056
H          0.10689       73.52906      -11.15894
H         -0.68101       73.77131       -9.56245
H          0.71706       74.79534      -10.05560
H         -0.06074       72.38964       -6.89808
H          0.85442       73.68222       -6.05024
H         -0.25382       74.12363       -7.37843
N         -0.93608       70.71629      -11.31077
C         -1.36589       70.45347      -12.68667
C         -1.96906       71.72075      -13.25790
O         -2.03578       72.71251      -12.55553
C         -2.40472       69.29419      -12.75931
C         -1.91078       68.00035      -12.11968
O         -3.64869       69.66301      -12.21528
H         -1.65989       70.88358      -10.60889
H         -0.49028       70.18301      -13.31501
H         -2.58779       69.06512      -13.83004
H         -3.54526       69.77951      -11.24079
H         -1.75327       68.16640      -11.03808
H         -2.67551       67.20362      -12.24398
H         -0.96337       67.66750      -12.59170
N         -2.44221       71.76939      -14.53362
C         -3.07683       72.97658      -15.06303
C         -4.33273       73.33688      -14.27322
O         -4.71186       74.50028      -14.26742
C         -3.41734       72.82411      -16.56181
C         -2.14485       72.65971      -17.40597
O         -4.26764       71.71934      -16.74086
H         -2.35557       70.93261      -15.12649
H         -2.35603       73.81872      -14.95512
H         -3.93432       73.75405      -16.89429
H         -4.60919       71.76346      -17.67157
H         -1.48394       73.54256      -17.27185
H         -1.58103       71.74670      -17.12378
H         -2.41174       72.58493      -18.48073
N         -5.04532       72.38276      -13.61073
C         -6.24544       72.66670      -12.83099
C         -5.88298       73.46715      -11.59142
O         -6.43427       74.53495      -11.36966
C         -6.95699       71.35427      -12.40039
C         -7.29393       70.38834      -13.55751
C         -8.15706       71.01431      -14.66060
C         -8.42084       69.99825      -15.78002
N         -9.21832       70.59375      -16.85085
H         -4.72929       71.40829      -13.68578
H         -6.96452       73.24251      -13.45244
H         -7.89762       71.62336      -11.87073
H         -6.31954       70.78852      -11.68641
H         -7.82783       69.51173      -13.12933
H         -6.35780       70.00510      -14.01276
H         -7.62538       71.87974      -15.10845
H         -9.12030       71.36201      -14.22835
H         -8.95621       69.11468      -15.36728
H         -7.44890       69.65443      -16.20125
H         -8.71495       71.41451      -17.26012
H         -9.36734       69.88169      -17.60183
H        -10.14757       70.89753      -16.47992
N         -4.94174       72.97754      -10.73850
C         -4.52244       73.61299       -9.48941
C         -3.98112       75.00412       -9.75344
O         -4.52734       75.96259       -9.22465
C         -3.45521       72.71884       -8.81263
C         -4.07894       71.39054       -8.35663
C         -3.06259       70.32065       -8.09932
O         -2.78931       69.52295       -8.97753
O         -2.77275       69.98826       -6.84593
H         -4.49253       72.09001      -11.00870
H         -5.39489       73.70213       -8.80270
H         -2.98893       73.21169       -7.93112
H         -2.65886       72.53355       -9.55641
H         -4.77372       70.97159       -9.11325
H         -4.69377       71.57603       -7.44827
N         -2.91713       75.19356      -10.57527
C         -2.38786       76.50226      -10.88019
H         -1.52468       76.40445      -11.57326
H         -3.16958       77.11850      -11.37260
H         -2.04474       77.00038       -9.94962
H         -2.46894       74.38227      -11.00692
Ca        -2.54842       67.79848       -6.44863
O         -3.30571       66.20850       -9.13143
H         -3.68241       66.00023      -10.02274
H         -4.01669       66.72564       -8.67662
O         -0.40658       66.65585       -9.71554
H          0.30078       66.77980      -10.39768
H         -0.42227       65.68180       -9.55198

Ca 1.0



