%chk=holoCaM-CaMKII.loop2.water2.frame159.chk
%nprocshared=20
%mem=10GB
%nosave
#b3lyp/svp scf=(tight,noincore,xqc) Test 
#IOP(5/87=12) Density=Current Pop=(MK,readradii) iop(6/33=2) iop(6/42=6)

holoCaM-CaMKII.loop2.water2.frame159 

   -2  1 
C         92.59580      104.44167       21.79573
C         93.00308      105.87618       21.61524
O         92.16587      106.75422       21.76114
H         91.80113      104.17983       21.06803
H         93.45539      103.75395       21.64423
H         92.21290      104.29293       22.82774
N         94.29395      106.18976       21.32187
C         94.77913      107.55886       21.21273
C         94.16219      108.27983       20.02089
O         94.24146      107.76434       18.91445
C         96.31593      107.55559       21.06274
C         96.91232      108.91920       21.25432
O         98.10943      109.08616       21.09267
O         96.15213      109.94332       21.67889
H         94.97292      105.41809       21.22847
H         94.53002      108.07957       22.16289
H         96.58772      107.15666       20.06179
H         96.77458      106.90222       21.83558
N         93.57892      109.50392       20.17382
C         92.98729      110.26668       19.08041
C         93.69947      111.59227       18.80382
O         93.37052      112.19538       17.79138
C         91.50982      110.53057       19.39558
H         93.56433      109.91144       21.10919
H         93.04364      109.67551       18.14158
H         90.97427      109.57074       19.55443
H         91.41535      111.14280       20.31995
H         91.01795      111.07398       18.56090
N         94.63539      112.13797       19.64352
C         95.28165      113.42882       19.38081
C         96.80946      113.40095       19.50197
O         97.44843      114.11249       18.73866
C         94.63022      114.56554       20.19989
C         94.70085      114.44996       21.69694
O         95.23843      113.50193       22.23837
O         94.13914      115.40930       22.45604
H         94.82812      111.67201       20.53487
H         95.07830      113.73393       18.32952
H         93.55365      114.61104       19.92288
H         95.09536      115.53053       19.90103
N         97.46753      112.64970       20.43744
C         98.92089      112.58442       20.55250
C         99.45435      113.15891       21.85626
O        100.66622      113.15798       22.02023
H         96.93153      112.08162       21.09636
H         99.40895      113.15663       19.73327
H         99.24300      111.52670       20.44676
N         98.64311      113.74723       22.78555
C         99.17474      114.54953       23.88802
C         99.89958      113.78733       25.00008
O        100.57254      114.44373       25.78312
C         98.08480      115.46843       24.48000
C         96.94178      114.77686       25.17841
N         96.01564      115.53020       25.81095
O         96.84557      113.55915       25.18975
H         97.63244      113.77172       22.61277
H         99.92204      115.23570       23.43061
H         97.65627      116.09715       23.66893
H         98.56885      116.14358       25.21633
H         96.08218      116.55688       25.80936
H         95.24301      115.09973       26.32544
N         99.79797      112.43927       25.16658
C        100.53026      111.69296       26.18827
C         99.65063      111.04348       27.24818
O        100.18268      110.27264       28.03236
H         99.18866      111.91360       24.53385
H        101.26577      112.33223       26.72323
H        101.10585      110.89878       25.66672
N         98.32321      111.33355       27.37217
C         97.44061      110.73850       28.38194
C         96.23889      110.08585       27.71478
O         96.08104      110.20776       26.51085
C         96.94727      111.84191       29.36329
C         98.06864      112.33710       30.27550
O         96.41712      112.93785       28.66006
H         97.91306      112.03023       26.74127
H         97.96441      109.94791       28.96190
H         96.17574      111.43672       30.05732
H         95.50773      112.68062       28.36012
H         98.90089      112.77698       29.68916
H         97.66992      113.11034       30.96825
H         98.45516      111.49465       30.88891
N         95.30145      109.43698       28.47158
C         94.01877      109.00435       27.93246
C         92.99589      110.01067       28.40654
O         92.67426      110.05252       29.58584
C         93.67202      107.52661       28.31559
C         94.56934      106.55667       27.50183
C         92.17933      107.21307       28.06795
C         94.34845      105.07145       27.80395
H         95.44053      109.37077       29.49057
H         94.02372      109.06582       26.82698
H         93.85210      107.38951       29.40510
H         95.63639      106.79278       27.69991
H         94.37098      106.70190       26.41868
H         91.91727      106.19135       28.40540
H         91.52596      107.88362       28.66185
H         91.92933      107.31569       26.99570
H         95.04237      104.46560       27.18353
H         94.54077      104.85768       28.87497
H         93.32120      104.74783       27.53736
N         92.47987      110.90061       27.51080
C         91.46149      111.87952       27.85288
C         90.12446      111.19178       28.02942
O         90.04519      109.98585       27.84035
C         91.38134      112.97212       26.76236
C         92.64110      113.80273       26.77305
O         92.59793      114.96508       27.13994
O         93.81446      113.28978       26.36304
H         92.83712      110.88766       26.54573
H         91.73380      112.38468       28.80690
H         90.53762      113.65164       26.99853
H         91.19307      112.53199       25.75609
N         89.02363      111.88737       28.42122
C         87.72160      111.26095       28.59583
C         87.15584      110.73861       27.27096
O         86.72998      109.59562       27.26646
C         86.74441      112.18829       29.34959
C         85.43087      111.50481       29.66425
C         84.22078      112.06374       29.22041
C         85.39741      110.30956       30.41116
C         83.00443      111.43915       29.51347
C         84.18008      109.68439       30.69233
C         82.98428      110.24904       30.24515
H         89.12520      112.89244       28.63758
H         87.86790      110.39066       29.27327
H         86.56667      113.12210       28.78371
H         87.21599      112.47671       30.31468
H         84.21675      112.98537       28.65229
H         86.30794      109.85322       30.77622
H         82.07635      111.87840       29.17267
H         84.16475      108.76223       31.25944
H         82.04230      109.76527       30.46800
N         87.14659      111.46392       26.09737
C         86.63250      110.94656       24.82256
C         87.32885      109.69333       24.29107
O         86.91403      109.18206       23.25872
C         86.87289      112.10027       23.83863
C         86.78911      113.31115       24.74016
C         87.57995      112.83422       25.95152
H         85.54615      110.75620       24.96412
H         87.92793      112.06364       23.47635
H         86.19970      112.10300       22.95473
H         87.16195      114.25601       24.29111
H         85.72554      113.44526       25.04308
H         88.66835      112.83690       25.72820
H         87.35546      113.48935       26.81104
N         88.39687      109.15431       24.93550
C         89.13888      107.97441       24.52254
C         88.88799      106.84135       25.50625
O         88.74539      105.70932       25.06887
C         90.63248      108.32428       24.48920
C         90.94828      109.43326       23.47313
C         92.35175      109.92590       23.62389
O         92.74641      111.00506       22.94062
O         93.10446      109.45139       24.45886
H         88.74856      109.62282       25.77387
H         88.83714      107.62564       23.50954
H         91.24307      107.42637       24.24973
H         90.91689      108.68378       25.50264
H         90.29656      110.31064       23.67465
H         90.76747      109.08829       22.43355
N         88.76792      107.07242       26.84622
C         88.47267      106.02541       27.79621
H         87.52041      105.52342       27.52265
H         89.30079      105.28863       27.81687
H         88.35569      106.46428       28.81163
H         88.84827      108.02164       27.21950
Ca        93.67698      112.42971       24.33233
O         97.63950      110.09336       24.16353
H         98.11701      109.64202       24.90368
H         98.30790      110.13925       23.43632
O         95.90657      107.94614       24.26151
H         95.37836      108.22170       25.04805
H         96.37694      107.12480       24.54660

Ca 1.0



