%chk=holoCaM.loop2.water2.frame90.chk
%nprocshared=20
%mem=10GB
%nosave
#b3lyp/svp scf=(tight,noincore,xqc) Test 
#IOP(5/87=12) Density=Current Pop=(MK,readradii) iop(6/33=2) iop(6/42=6)

holoCaM.loop2.water2.frame90 

   -2  1 
C         85.73444       33.97886       14.29832
C         85.58629       34.70214       12.99519
O         86.31177       34.40299       12.05644
H         85.96377       34.69980       15.10798
H         84.78103       33.45619       14.53198
H         86.54229       33.21875       14.23825
N         84.60879       35.63823       12.84925
C         84.30458       36.23553       11.56025
C         85.37741       37.21353       11.09856
O         85.73173       38.10918       11.85198
C         82.93751       36.95295       11.57796
C         82.35386       37.02678       10.18685
O         81.27901       37.57408       10.01780
O         82.95994       36.33246        9.18820
H         83.98939       35.83005       13.65206
H         84.20896       35.37659       10.86496
H         83.02526       37.95064       12.06217
H         82.20530       36.35263       12.16013
N         85.88474       37.13055        9.83791
C         86.90263       38.01569        9.28885
C         86.39618       38.83581        8.09610
O         87.21341       39.53286        7.50769
C         88.10344       37.15540        8.87714
H         85.52834       36.39689        9.22307
H         87.25869       38.73798       10.05558
H         88.92990       37.79093        8.49322
H         88.48305       36.59398        9.75800
H         87.81319       36.42727        8.08916
N         85.08169       38.85915        7.70093
C         84.62742       39.67133        6.56007
C         83.12807       40.04457        6.53738
O         82.74639       40.75028        5.61352
C         85.06784       39.01415        5.22672
C         84.40133       37.69604        4.94567
O         83.49618       37.18785        5.79514
O         84.67432       37.08267        3.92689
H         84.40829       38.31036        8.24171
H         85.13679       40.65939        6.62676
H         86.16651       38.85413        5.23626
H         84.83758       39.70150        4.38423
N         82.23609       39.69999        7.51755
C         80.86774       40.20882        7.56754
C         79.90604       39.70076        6.50334
O         78.78018       40.17900        6.49978
H         82.54050       39.15924        8.33071
H         80.90993       41.31929        7.51048
H         80.42291       39.94747        8.55195
N         80.24046       38.76121        5.57236
C         79.32203       38.35523        4.50107
C         78.03644       37.64199        4.96145
O         77.17360       37.43113        4.12030
C         80.05242       37.48175        3.45133
C         80.58990       36.16973        3.97357
N         81.12231       35.27363        3.11479
O         80.54715       35.90492        5.16321
H         81.19452       38.37799        5.58157
H         79.00750       39.28546        3.97723
H         80.90084       38.05222        3.01571
H         79.33750       37.25937        2.63000
H         81.17278       35.47414        2.10645
H         81.46196       34.36522        3.45602
N         77.84536       37.21237        6.24170
C         76.64155       36.53434        6.71621
C         76.86911       35.07148        7.08715
O         75.96847       34.47887        7.66391
H         78.58364       37.37062        6.92659
H         75.82757       36.55408        5.95873
H         76.27368       37.09005        7.60488
N         77.98808       34.39522        6.69327
C         78.18852       32.95406        6.85076
C         79.62125       32.61631        7.27049
O         80.55491       33.13554        6.67724
C         77.86511       32.23809        5.50341
C         76.36026       32.25391        5.22541
O         78.50306       32.82288        4.39086
H         78.66850       34.89445        6.11625
H         77.49650       32.52298        7.60866
H         78.15730       31.16639        5.58612
H         79.44343       33.02223        4.61370
H         75.80368       31.77779        6.06093
H         75.99403       33.29223        5.08642
H         76.14796       31.68188        4.29732
N         79.87028       31.66395        8.22193
C         81.22381       31.18391        8.52639
C         81.88793       30.62491        7.27117
O         81.44928       29.61655        6.73492
C         81.20980       30.14980        9.70840
C         81.04061       30.93542       11.03719
C         82.48321       29.27327        9.75907
C         80.91850       30.07175       12.29238
H         79.06849       31.23111        8.70544
H         81.83672       32.04667        8.85319
H         80.36060       29.44597        9.55813
H         80.13105       31.56948       10.97649
H         81.92118       31.60311       11.17265
H         82.58506       28.66982        8.83368
H         83.39132       29.89111        9.89320
H         82.42507       28.52371       10.57274
H         80.80350       30.73600       13.17531
H         80.03116       29.41068       12.22062
H         81.82892       29.46305       12.46452
N         82.97649       31.27076        6.76160
C         83.75429       30.81926        5.61700
C         84.64400       29.62297        5.99009
O         84.64954       29.22480        7.14182
C         84.62438       31.99006        5.10151
C         83.80986       33.14438        4.54274
O         83.15019       34.07676        5.28606
O         83.80519       33.28995        3.33083
H         83.25903       32.15377        7.20151
H         83.06321       30.52361        4.79639
H         85.22646       31.59064        4.25783
H         85.34134       32.35343        5.86526
N         85.41545       28.98890        5.05155
C         86.29318       27.85130        5.35501
C         87.46737       28.21260        6.26381
O         87.59086       27.54944        7.28601
C         86.78620       27.15224        4.06365
C         87.69452       25.95840        4.33311
C         87.30405       24.91965        5.20404
C         88.95020       25.87161        3.70183
C         88.15580       23.83577        5.44614
C         89.79040       24.77612        3.93451
C         89.39591       23.76222        4.80965
H         85.34425       29.30022        4.07170
H         85.67568       27.08869        5.87808
H         87.30396       27.87971        3.40446
H         85.89005       26.78736        3.51737
H         86.34898       24.94522        5.70956
H         89.27775       26.64470        3.01881
H         87.85356       23.04995        6.12721
H         90.74952       24.71238        3.43628
H         90.05005       22.91860        4.99330
N         88.38513       29.20282        6.00545
C         89.51486       29.48215        6.88765
C         89.06622       29.94986        8.26001
O         89.86435       29.91679        9.18536
C         90.30988       30.55851        6.13854
C         89.21623       31.28456        5.37854
C         88.35175       30.12360        4.88810
H         90.14259       28.57324        7.02241
H         90.96773       31.19534        6.76989
H         90.93970       30.05867        5.36921
H         88.62552       31.87475        6.11692
H         89.56040       31.97325        4.57827
H         87.34722       30.52391        4.66258
H         88.79816       29.62629        4.00018
N         87.80220       30.40292        8.46214
C         87.28457       30.77987        9.76617
C         87.02786       29.51645       10.56193
O         87.54242       29.38599       11.66312
C         86.00725       31.62062        9.59002
C         86.32955       32.89060        8.77644
C         85.13356       33.73497        8.51613
O         83.95680       33.47827        9.11622
O         85.22590       34.65666        7.72331
H         87.17128       30.48266        7.65302
H         88.01070       31.43622       10.29745
H         85.60252       31.90386       10.58637
H         85.23736       31.03213        9.04715
H         86.72681       32.60624        7.78311
H         87.09938       33.50774        9.28781
N         86.27490       28.51592       10.02200
C         86.02088       27.24400       10.66281
H         84.92511       27.08511       10.74061
H         86.45116       26.43186       10.03722
H         86.46792       27.18399       11.67557
H         85.88524       28.64047        9.08153
Ca        82.57326       35.15457        7.25142
O         81.15389       34.14131       10.18007
H         80.43282       34.57597       10.69930
H         81.90572       34.05985       10.81782
O         79.92170       35.85479        8.33843
H         80.24849       36.75156        8.07666
H         79.16371       36.02644        8.95218

Ca 1.0



