%chk=holoCaM-CaMKII.loop3.water2.frame9.chk
%nprocshared=20
%mem=10GB
%nosave
#b3lyp/svp scf=(tight,noincore,xqc) Test 
#IOP(5/87=12) Density=Current Pop=(MK,readradii) iop(6/33=2) iop(6/42=6)

holoCaM-CaMKII.loop3.water2.frame9 

   0  1 
C         54.75244       60.44409       14.31188
C         53.74346       59.41956       14.72869
O         53.80482       58.29153       14.26300
H         55.47462       60.01260       13.58667
H         54.23490       61.30430       13.83876
H         55.30943       60.79710       15.20557
N         52.78848       59.74185       15.64103
C         51.80284       58.78123       16.11207
C         50.83823       58.42341       14.98038
O         50.29057       59.34324       14.38741
C         51.03460       59.35905       17.33145
C         50.27736       58.27663       18.04595
O         49.60774       58.51881       19.03050
O         50.41510       57.02180       17.60451
H         52.79608       60.69279       16.04278
H         52.36055       57.88594       16.47066
H         50.35379       60.17680       17.00978
H         51.76151       59.76845       18.06623
N         50.56580       57.12450       14.63394
C         49.72419       56.77463       13.48505
C         48.35268       56.23100       13.85883
O         47.54747       56.10416       12.94532
C         50.44573       55.75143       12.57684
C         51.83667       56.19272       12.10273
C         51.81017       57.43539       11.20911
C         53.23175       57.82284       10.78291
N         53.21566       59.02812        9.95701
H         50.98150       56.36090       15.18585
H         49.50485       57.69039       12.89702
H         49.82029       55.51944       11.68640
H         50.57210       54.80858       13.15415
H         52.29298       55.35133       11.53558
H         52.46670       56.39538       12.98577
H         51.36784       58.28826       11.76365
H         51.19334       57.22889       10.30722
H         53.69552       56.98722       10.21288
H         53.85250       58.01207       11.68530
H         52.66053       58.85910        9.08710
H         52.79916       59.82371       10.49384
H         54.19677       59.27537        9.69429
N         47.99075       55.89351       15.13416
C         46.62978       55.46364       15.46876
C         45.96566       56.34672       16.52477
O         44.75635       56.23033       16.66948
C         46.56814       53.95457       15.79292
C         47.38169       53.52272       16.97437
O         48.27692       52.70451       16.83383
O         47.09356       53.98521       18.20155
H         48.69512       55.93368       15.87659
H         45.98425       55.58121       14.57158
H         46.92442       53.39939       14.89701
H         45.51315       53.65666       15.97463
N         46.65338       57.25626       17.28302
C         45.99707       58.20727       18.17432
C         46.17109       57.90502       19.64991
O         45.66304       58.67727       20.45088
H         47.67747       57.31245       17.22306
H         44.90163       58.23047       17.99120
H         46.38458       59.22292       17.94292
N         46.79942       56.77925       20.09559
C         46.78995       56.36920       21.50195
C         47.78188       57.13145       22.38033
O         47.92027       56.77555       23.54237
C         46.95506       54.83208       21.60732
C         48.34420       54.29691       21.35926
N         48.91467       53.45225       22.25048
O         48.94600       54.59180       20.34083
H         47.16431       56.12191       19.39746
H         45.76303       56.54098       21.89694
H         46.25419       54.36467       20.88154
H         46.62782       54.50667       22.61883
H         48.41487       53.16488       23.10486
H         49.85106       53.06076       22.07882
N         48.47949       58.20914       21.91625
C         49.43002       58.95728       22.71909
C         50.81235       58.33718       22.75499
O         51.66630       58.91430       23.41259
H         48.28067       58.57738       20.98257
H         49.02583       59.10892       23.74417
H         49.55980       59.96455       22.26693
N         51.12740       57.19356       22.07328
C         52.46235       56.59759       22.09757
C         53.04205       56.44940       20.70142
O         52.31161       56.44007       19.72239
C         52.38665       55.22515       22.78213
C         52.04710       55.38741       24.24022
C         50.72335       55.27608       24.69145
C         53.06555       55.67568       25.16165
C         50.42153       55.45434       26.04427
C         52.76554       55.84162       26.51563
C         51.44019       55.73453       26.96141
O         51.13529       55.90068       28.26383
H         50.40070       56.70711       21.52950
H         53.16902       57.23882       22.66921
H         53.34637       54.66862       22.70179
H         51.61579       54.61749       22.26387
H         49.92464       55.06981       23.99662
H         54.09284       55.76465       24.82986
H         49.39459       55.37721       26.37867
H         53.56337       56.05621       27.21498
H         51.81147       56.09525       28.92842
N         54.39483       56.34607       20.56311
C         55.10296       56.18338       19.29756
C         55.92753       54.90891       19.39766
O         56.70464       54.77215       20.33227
C         56.00092       57.42706       19.02655
C         55.11871       58.69698       18.87580
C         56.85933       57.21727       17.75748
C         55.92097       59.99991       18.86990
H         54.97155       56.40226       21.41707
H         54.39335       56.10167       18.44531
H         56.68010       57.55807       19.89802
H         54.41919       58.77435       19.73387
H         54.51028       58.62640       17.94636
H         56.21220       57.06985       16.86537
H         57.53154       58.07771       17.57214
H         57.51650       56.32954       17.86438
H         56.63160       60.05259       18.02235
H         55.22410       60.86006       18.78073
H         56.47964       60.09980       19.82524
N         55.81767       53.94245       18.44539
C         56.54150       52.67642       18.47648
C         57.54283       52.61278       17.33558
O         57.65221       53.56459       16.58256
C         55.52488       51.52402       18.39678
O         54.82414       51.58090       17.18461
H         55.20407       54.11644       17.64153
H         57.11208       52.57147       19.42439
H         54.80985       51.61406       19.24417
H         56.05190       50.54864       18.47710
H         54.25430       50.76974       17.15120
N         58.33228       51.51574       17.16452
C         59.30650       51.38842       16.08275
C         58.63079       51.40638       14.72283
O         59.01975       52.19816       13.87563
C         60.09694       50.08514       16.23756
H         58.24301       50.74180       17.83979
H         60.04139       52.22240       16.14681
H         59.42563       49.20158       16.19016
H         60.85753       50.00435       15.43140
H         60.62428       50.08092       17.21525
N         57.59551       50.56032       14.45679
C         56.89627       50.49535       13.17449
C         56.38604       51.85471       12.74835
O         56.63352       52.26578       11.62347
C         55.70766       49.52833       13.27966
H         57.27387       49.94402       15.22006
H         57.58520       50.10790       12.39186
H         54.98514       49.87279       14.05238
H         55.17676       49.46173       12.30569
H         56.06198       48.51334       13.55651
N         55.67488       52.61078       13.62242
C         55.11521       53.91990       13.30499
C         56.21551       54.86597       12.84702
O         56.10954       55.40813       11.75566
C         54.33724       54.46357       14.52495
C         53.15791       53.52158       14.88336
C         52.34487       53.99630       16.04493
O         52.88804       54.46760       17.02879
O         51.02730       53.72987       16.10137
H         55.55172       52.22964       14.57077
H         54.38243       53.81711       12.47294
H         53.94649       55.47282       14.29688
H         55.02690       54.56486       15.38878
H         53.52200       52.51466       15.15207
H         52.48542       53.39494       14.00839
N         57.33269       55.05212       13.60150
C         58.46688       55.85469       13.18905
H         59.36419       55.20229       13.11441
H         58.30987       56.33902       12.20295
H         58.66250       56.64014       13.94759
H         57.40862       54.56401       14.49716
Ca        49.98128       54.86074       17.72591
O         52.29046       53.01873       20.22294
H         53.11753       52.94906       20.76200
H         51.70180       52.30785       20.58168
O         51.07825       51.65814       17.98092
H         51.74930       51.25386       17.37585
H         50.38938       50.95812       18.09841

Ca 1.0



