%chk=holoCaM.loop3.water3.frame453.chk
%nprocshared=20
%mem=10GB
%nosave
#b3lyp/svp scf=(tight,noincore,xqc) Test 
#IOP(5/87=12) Density=Current Pop=(MK,readradii) iop(6/33=2) iop(6/42=6)

holoCaM.loop3.water3.frame453 

   0  1 
C         32.03065       72.13999       70.55059
C         32.93714       71.28461       71.38181
O         32.45200       70.37967       72.04651
H         31.29065       72.64536       71.20319
H         32.60285       72.91012       69.99128
H         31.49888       71.49886       69.81588
N         34.28232       71.48859       71.36417
C         35.20598       70.62366       72.07635
C         35.03996       70.75202       73.58908
O         35.16627       71.84349       74.12586
C         36.64728       70.90476       71.63073
C         37.59767       69.88111       72.16431
O         37.16158       68.85840       72.91657
O         38.78279       69.99498       71.93987
H         34.66268       72.23894       70.76625
H         34.98503       69.58941       71.76053
H         36.95323       71.91754       71.97277
H         36.71270       70.86637       70.52188
N         34.73616       69.64647       74.32561
C         34.43599       69.65278       75.75605
C         35.62413       70.13397       76.59271
O         35.47240       71.13200       77.28274
C         33.90968       68.24966       76.15114
C         33.08345       68.21355       77.44771
C         32.33721       66.86448       77.54939
C         31.26378       66.82446       78.64904
N         31.82862       66.90244       79.99347
H         34.64600       68.75584       73.81531
H         33.58523       70.35724       75.89627
H         34.72248       67.49183       76.15769
H         33.19240       67.96427       75.34871
H         32.31461       69.01450       77.38506
H         33.72545       68.40123       78.33409
H         33.05909       66.02847       77.67392
H         31.78607       66.69891       76.59646
H         30.70480       65.86636       78.55234
H         30.53675       67.65326       78.49333
H         32.32181       67.81199       80.13361
H         31.04817       66.83524       80.68679
H         32.48622       66.10457       80.14898
N         36.84450       69.51309       76.53870
C         38.03599       69.99465       77.25441
C         39.08363       70.66855       76.36271
O         40.12402       71.05242       76.88219
C         38.65671       68.92888       78.18978
C         39.42079       67.73132       77.65310
O         39.51878       67.36034       76.35686
O         40.00274       67.04045       78.47442
H         36.92021       68.68886       75.94213
H         37.72788       70.80767       77.94847
H         37.86962       68.55926       78.88130
H         39.39604       69.47892       78.81617
N         38.84036       70.96952       75.05570
C         39.72992       71.80523       74.25458
C         41.05036       71.17922       73.82899
O         41.81990       71.88713       73.19557
H         37.92909       70.72143       74.65172
H         39.93623       72.74161       74.81854
H         39.20119       72.10622       73.32607
N         41.39960       69.88999       74.11539
C         42.70803       69.33133       73.74236
C         42.93134       69.19806       72.22981
O         44.04147       68.85683       71.83820
C         42.94690       67.98238       74.46410
C         42.12514       66.82619       73.94015
N         42.71511       65.65849       73.60036
O         40.91577       66.92709       73.84598
H         40.75331       69.31749       74.67147
H         43.47199       70.03302       74.14548
H         42.71595       68.12605       75.54188
H         44.02377       67.71627       74.39336
H         43.73371       65.53167       73.68467
H         42.14507       64.86683       73.26563
N         41.93534       69.42657       71.32575
C         42.07101       69.32593       69.88191
C         41.21009       68.22285       69.27712
O         41.22737       68.08338       68.06784
H         41.01230       69.68563       71.67143
H         43.12465       69.12120       69.58996
H         41.78213       70.30195       69.43482
N         40.49978       67.35337       70.06299
C         39.84209       66.15063       69.54815
C         38.43990       65.99007       70.11813
O         38.27179       66.12607       71.31726
C         40.68454       64.94478       70.00126
C         42.04612       64.94960       69.34555
C         43.20426       65.17773       70.10328
C         42.16889       64.72057       67.96474
C         44.46229       65.17588       69.49844
C         43.42961       64.70970       67.35977
C         44.58164       64.93692       68.12698
O         45.80449       64.92574       67.56011
H         40.53842       67.45563       71.08379
H         39.79499       66.13392       68.43888
H         40.17955       63.98821       69.74333
H         40.78274       64.98400       71.10877
H         43.13764       65.36653       71.15861
H         41.28988       64.53865       67.35912
H         45.34467       65.35765       70.09922
H         43.50944       64.52224       66.29677
H         45.93243       64.75260       66.61678
N         37.40209       65.60126       69.30864
C         36.06738       65.28355       69.82317
C         35.71746       63.82220       69.55094
O         35.60030       63.42200       68.40479
C         34.98349       66.25904       69.26730
C         34.91628       66.31059       67.71418
C         35.23038       67.65048       69.86355
C         33.78396       67.18702       67.17560
H         37.57819       65.47486       68.30357
H         36.05055       65.40086       70.92730
H         33.99780       65.91115       69.65258
H         34.72835       65.29979       67.30822
H         35.87649       66.68163       67.29744
H         36.19618       68.07233       69.51350
H         34.41126       68.35354       69.61322
H         35.25554       67.56243       70.96895
H         33.92481       68.25118       67.45006
H         33.77310       67.12899       66.06641
H         32.80469       66.82864       67.55827
N         35.54173       62.95622       70.59411
C         35.12111       61.56807       70.41047
C         33.65133       61.48934       70.00245
O         32.98713       62.51441       69.92430
C         35.35392       60.77274       71.71292
O         34.57273       61.28183       72.76245
H         35.72484       63.29306       71.54907
H         35.75775       61.09703       69.62957
H         36.44075       60.80706       71.96482
H         35.10294       59.70021       71.57707
H         35.19159       61.62123       73.46003
N         33.06888       60.27921       69.76051
C         31.64532       60.10804       69.47340
C         30.79653       60.60726       70.62764
O         29.78181       61.24294       70.38365
C         31.32253       58.63457       69.21229
H         33.66077       59.43585       69.81057
H         31.37792       60.66603       68.54756
H         31.91189       58.26909       68.34455
H         31.55985       58.01206       70.10086
H         30.24333       58.52038       68.96969
N         31.17700       60.37965       71.91754
C         30.46335       60.91562       73.07228
C         30.41371       62.43478       73.01735
O         29.32993       62.99745       73.08852
C         31.15327       60.47203       74.37046
H         32.03503       59.83070       72.08248
H         29.42802       60.50738       73.09013
H         30.60001       60.86079       75.25212
H         31.17064       59.36291       74.43108
H         32.19988       60.84256       74.41563
N         31.56118       63.16072       72.87825
C         31.60059       64.62477       72.84647
C         30.85438       65.22183       71.65527
O         30.68186       66.43316       71.63244
C         33.06415       65.12272       72.80063
C         33.86085       64.74163       74.05804
C         35.30031       65.14158       73.91348
O         36.17931       64.29815       73.98132
O         35.63274       66.42780       73.70712
H         32.44436       62.63876       72.80677
H         31.11821       65.00247       73.77584
H         33.08466       66.23203       72.70997
H         33.55173       64.69206       71.89803
H         33.81856       63.64777       74.23566
H         33.42217       65.25069       74.94241
N         30.39857       64.45955       70.62416
C         29.67329       65.01738       69.50478
H         28.73405       65.49098       69.86139
H         30.29944       65.76998       68.98152
H         29.41084       64.21034       68.78689
H         30.57945       63.45383       70.61290
Ca        38.49200       67.90937       74.42922
O         38.89595       63.89856       72.89709
H         39.45906       63.18472       73.28613
H         38.56459       63.51790       72.04491
O         36.98741       65.78660       76.58223
H         36.71606       66.14516       77.46407
H         36.97451       64.80344       76.69690
O         39.94755       64.32612       75.87529
H         40.39233       63.44934       75.76074
H         40.67668       64.98564       75.76478

Ca 1.0



