%chk=holoCaM.loop1.water2.frame40.chk
%nprocshared=20
%mem=10GB
%nosave
#b3lyp/svp scf=(tight,noincore,xqc) Test 
#IOP(5/87=12) Density=Current Pop=(MK,readradii) iop(6/33=2) iop(6/42=6)

holoCaM.loop1.water2.frame40 

   0  1 
C         -9.72749        4.15459       20.91252
C        -11.02331        4.88565       21.07649
O        -11.62052        4.78684       22.13826
H         -9.00059        4.51253       21.67085
H         -9.90394        3.06805       21.05499
H         -9.29878        4.31472       19.90130
N        -11.51814        5.65335       20.06539
C        -12.77789        6.37372       20.17087
C        -13.94097        5.38705       20.30157
O        -14.33166        4.75267       19.33267
C        -12.92389        7.32648       18.96978
C        -14.23970        8.02452       18.93646
O        -14.95446        7.90354       17.95902
O        -14.64153        8.77823       19.97005
H        -10.96220        5.74439       19.20091
H        -12.73071        7.01274       21.08395
H        -12.80498        6.75627       18.02305
H        -12.11574        8.09024       19.01950
N        -14.48374        5.17977       21.53046
C        -15.56130        4.24897       21.85792
C        -16.90793        4.68171       21.28727
O        -17.64200        3.84209       20.78698
C        -15.66484        4.16294       23.40679
C        -16.71927        3.18191       23.95478
C        -16.56719        1.72764       23.47798
C        -15.21723        1.09614       23.85378
N        -15.15169       -0.29008       23.39280
H        -14.03685        5.67504       22.31122
H        -15.29008        3.23667       21.49077
H        -15.90142        5.16648       23.82120
H        -14.67071        3.87429       23.81157
H        -17.73088        3.53884       23.66614
H        -16.66463        3.20414       25.06596
H        -16.70722        1.67925       22.37842
H        -17.38131        1.13203       23.94514
H        -15.08623        1.12516       24.95832
H        -14.38417        1.66266       23.38521
H        -15.91155       -0.85448       23.83750
H        -15.24993       -0.32505       22.35173
H        -14.22598       -0.69727       23.65784
N        -17.31105        5.97699       21.39595
C        -18.66952        6.46482       21.12416
C        -18.82959        7.22343       19.80641
O        -19.93312        7.67685       19.53287
C        -19.16440        7.30608       22.32792
C        -18.32000        8.53307       22.62570
O        -18.62152        9.25270       23.56349
O        -17.21436        8.80043       21.88851
H        -16.60891        6.63218       21.74949
H        -19.36172        5.59822       21.02893
H        -19.16649        6.65316       23.22948
H        -20.21614        7.61954       22.14542
N        -17.82743        7.30338       18.89110
C        -18.03745        7.78701       17.53010
C        -18.07000        9.29084       17.33453
O        -18.13149        9.69553       16.18125
H        -16.93087        6.84550       19.10242
H        -18.95204        7.32282       17.10220
H        -17.18734        7.42718       16.91416
N        -17.98767       10.19023       18.35724
C        -17.87415       11.63271       18.11159
C        -16.49517       12.03024       17.56352
O        -16.27277       13.21823       17.36916
C        -18.24448       12.44853       19.37141
C        -17.41161       12.13908       20.57006
O        -17.99388       11.68510       21.69547
O        -16.21075       12.32037       20.54142
H        -17.99341        9.84672       19.32761
H        -18.63696       11.93842       17.36053
H        -19.30657       12.24514       19.62366
H        -18.15608       13.53586       19.15094
N        -15.53523       11.10851       17.24893
C        -14.24572       11.47106       16.69513
C        -13.30248       12.04138       17.72483
O        -12.30171       12.61105       17.31298
H        -15.72386       10.10890       17.33895
H        -14.39609       12.17566       15.84726
H        -13.74313       10.57000       16.27914
N        -13.48220       11.84245       19.06916
C        -12.50404       12.28345       20.05691
C        -12.47630       11.36141       21.32352
O        -13.57268       11.61752       22.17075
C        -12.68441       13.78436       20.44803
C        -12.38162       14.78873       19.32896
O        -13.96562       14.01869       20.97231
H        -14.25609       11.24333       19.38284
H        -11.49880       12.14279       19.59832
H        -11.94845       14.01958       21.24563
H        -14.59438       14.07415       20.20642
H        -11.34350       14.65177       18.96103
H        -13.09688       14.69085       18.48759
H        -12.47881       15.81919       19.73300
N        -11.24743       11.67110       22.07593
C        -10.82399       10.72482       23.12087
C        -10.76944       11.50383       24.42392
O        -10.11524       12.53351       24.49620
C         -9.45900       10.04836       22.74633
C         -9.70453        9.03459       21.59267
C         -8.80733        9.35003       23.95838
C         -8.43612        8.39371       21.02625
H        -10.44131       11.98822       21.48829
H        -11.56369        9.90600       23.24457
H         -8.74411       10.83568       22.41847
H        -10.21188        9.54864       20.74921
H        -10.37748        8.22346       21.95279
H         -7.81882        8.92454       23.69395
H         -8.60787       10.08016       24.77051
H         -9.45486        8.54365       24.34965
H         -8.71550        7.69771       20.20629
H         -7.76338        9.17522       20.61565
H         -7.89509        7.79972       21.78956
N        -11.43311       11.02072       25.50903
C        -11.49331       11.64915       26.81857
C        -10.62958       10.85619       27.79054
O         -9.97346        9.91425       27.38117
C        -12.97611       11.70526       27.29360
C        -13.87408       12.49220       26.32611
O        -13.48709       10.41151       27.52588
H        -11.90178       10.11996       25.42396
H        -11.08800       12.68299       26.77824
H        -13.03131       12.24663       28.25964
H        -13.79720       10.02770       26.66673
H        -13.50540       13.53327       26.21927
H        -13.89135       12.01274       25.32485
H        -14.91299       12.52236       26.71932
N        -10.59121       11.19460       29.10993
C         -9.80498       10.47453       30.11396
C        -10.13940        8.99348       30.13422
O         -9.21964        8.18572       30.10868
C        -10.02111       11.08858       31.52030
C         -9.41295       12.49607       31.60447
O        -11.39303       11.12645       31.82563
H        -11.16531       11.99013       29.41570
H         -8.72149       10.56249       29.87437
H         -9.49156       10.44681       32.26216
H        -11.47633       11.42263       32.76906
H         -9.54366       12.90336       32.62868
H         -8.32394       12.44796       31.38906
H         -9.88917       13.19294       30.88510
N        -11.42545        8.56021       30.18474
C        -11.79566        7.14711       30.19877
C        -11.36023        6.45513       28.91286
O        -10.66182        5.45495       28.99471
C        -13.31076        6.99319       30.46225
C        -13.63733        7.51450       31.87863
C        -15.11858        7.39297       32.24718
C        -15.41496        7.97341       33.64644
N        -14.73423        7.24354       34.72029
H        -12.17185        9.27259       30.20561
H        -11.28192        6.63848       31.04682
H        -13.58505        5.91580       30.41622
H        -13.89805        7.53934       29.69110
H        -13.35379        8.58369       31.96726
H        -13.03150        6.92767       32.59968
H        -15.43844        6.32943       32.20643
H        -15.71505        7.96828       31.50596
H        -16.51184        7.92057       33.82007
H        -15.11775        9.04583       33.68061
H        -14.99265        6.23083       34.68944
H        -13.69771        7.35138       34.65201
H        -15.03192        7.63933       35.64113
N        -11.70404        6.95045       27.68793
C        -11.28938        6.32078       26.42498
C         -9.76824        6.34606       26.22370
O         -9.30111        5.73591       25.27132
C        -11.94445        7.03488       25.21759
C        -13.48440        7.03681       25.26789
C        -14.07790        7.94044       24.22300
O        -13.77689        9.24784       24.21052
O        -14.89250        7.51898       23.42543
H        -12.27667        7.80552       27.66693
H        -11.62984        5.26200       26.43722
H        -11.61886        6.56998       24.26052
H        -11.56946        8.06764       25.22255
H        -13.84767        7.42541       26.23655
H        -13.85572        5.99611       25.15323
N         -8.94025        7.04920       27.04951
C         -7.50194        7.12793       26.90122
H         -7.12847        6.53690       26.04089
H         -7.20844        8.19012       26.75792
H         -7.01865        6.75375       27.82899
H         -9.33458        7.58494       27.82260
Ca       -15.44094       10.23810       22.09770
O        -16.24388       10.36012       25.45435
H        -16.56845        9.58254       24.93727
H        -16.93817       10.51037       26.14314
O        -15.61018       12.89954       23.46806
H        -16.46353       13.11494       23.91792
H        -15.09761       13.74628       23.46934

Ca 1.0



