%chk=holoCaM.loop4.water2.frame160.chk
%nprocshared=20
%mem=10GB
%nosave
#b3lyp/svp scf=(tight,noincore,xqc) Test 
#IOP(5/87=12) Density=Current Pop=(MK,readradii) iop(6/33=2) iop(6/42=6)

holoCaM.loop4.water2.frame160 

   -3  1 
C         81.11218      112.03717       86.15153
C         79.92865      111.17424       85.80802
O         79.99230      109.97782       86.03504
H         82.01208      111.71659       85.59112
H         80.91213      113.10926       85.93993
H         81.31396      111.94673       87.24260
N         78.78352      111.73924       85.33271
C         77.50039      111.04709       85.23902
C         76.79359      111.33125       83.91279
O         76.65933      112.49132       83.54954
C         76.66495      111.59472       86.40668
C         75.23552      111.16060       86.41525
O         74.85494      109.88809       86.58610
O         74.36455      112.00582       86.29494
H         78.77652      112.76113       85.18822
H         77.60605      109.94856       85.38159
H         76.66861      112.70505       86.34036
H         77.14033      111.31399       87.37085
N         76.24077      110.31051       83.18668
C         75.47189      110.49156       81.95300
C         74.00651      110.04225       82.08522
O         73.26860      110.26982       81.13622
C         76.15150      109.72778       80.76190
C         76.00043      108.18075       80.89220
C         77.62276      110.15882       80.62479
C         76.67019      107.37263       79.77726
H         76.36024      109.36231       83.53564
H         75.45158      111.57361       81.69959
H         75.63281      110.02455       79.82267
H         74.92143      107.92221       80.87024
H         76.39970      107.82846       81.85521
H         78.21574      109.83810       81.50767
H         78.08169      109.72280       79.71384
H         77.68791      111.26226       80.52451
H         76.28563      107.68255       78.78332
H         77.77328      107.48789       79.80627
H         76.45044      106.29283       79.92278
N         73.53283      109.32701       83.15807
C         72.19584      108.71030       83.16953
C         71.38977      108.90352       84.46272
O         70.26072      108.43347       84.50052
C         72.32298      107.20695       82.81554
C         73.14107      106.38539       83.77244
O         73.69970      106.94088       84.85634
O         73.30687      105.19540       83.55981
H         74.18412      109.08897       83.91500
H         71.57488      109.15084       82.36001
H         72.79232      107.12317       81.81232
H         71.30862      106.75717       82.75168
N         71.86614      109.57850       85.54688
C         71.08964      109.79450       86.76504
C         70.72788      108.50169       87.47692
O         69.54545      108.21673       87.60629
H         72.79514      110.00023       85.49599
H         70.16476      110.35389       86.49981
H         71.67221      110.42695       87.46969
N         71.69960      107.67459       87.96630
C         71.42644      106.39075       88.62836
C         72.04646      106.28346       90.01942
O         71.93282      105.21914       90.61342
C         71.88226      105.21734       87.72243
C         73.37450      105.08199       87.54417
O         74.12623      106.15550       87.28754
O         73.91112      103.99224       87.63541
H         72.67649      107.96524       87.82806
H         70.32809      106.25645       88.75161
H         71.40462      105.35866       86.73056
H         71.49983      104.25508       88.13426
N         72.67874      107.32917       90.63074
C         73.23770      107.21065       91.96941
C         74.53875      106.42480       92.03486
O         74.94814      106.11198       93.14401
H         72.69653      108.25512       90.18228
H         72.47263      106.75031       92.63408
H         73.45243      108.22007       92.38259
N         75.29630      106.15046       90.92707
C         76.59595      105.46651       91.01750
C         77.46469      105.65944       89.76789
O         77.01932      106.27791       88.81439
C         76.39145      103.96579       91.33052
C         75.62193      103.23889       90.21270
C         75.46361      101.75906       90.46007
N         74.81920      100.99384       89.54952
O         75.91757      101.24045       91.47006
H         74.97040      106.50100       90.01620
H         77.17651      105.93761       91.84193
H         75.83620      103.85220       92.28604
H         77.38120      103.48150       91.46573
H         76.16510      103.36160       89.25122
H         74.61138      103.68960       90.11579
H         74.43313      101.41219       88.69040
H         74.70903       99.98028       89.70033
N         78.74343      105.16564       89.72486
C         79.65860      105.36674       88.59774
C         80.01560      104.02921       87.96452
O         80.35859      103.09719       88.67848
C         80.96124      106.09478       89.03812
C         81.80448      106.46805       87.79926
C         80.67883      107.37013       89.84407
H         79.10135      104.64210       90.53754
H         79.17947      106.00848       87.83148
H         81.55404      105.41972       89.69370
H         82.08673      105.56827       87.21577
H         81.23314      107.15090       87.13086
H         82.74222      106.97927       88.10006
H         80.10123      108.09884       89.24995
H         80.11816      107.13394       90.77188
H         81.63627      107.84995       90.14073
N         80.00694      103.89650       86.60735
C         80.31777      102.67033       85.88445
C         81.55334      102.87085       85.00518
O         82.03860      103.98733       84.88157
C         79.05881      102.31246       85.05613
C         79.14257      101.04740       84.24271
N         79.35397       99.85138       84.83584
O         78.99109      101.10091       83.03137
H         79.77956      104.71917       86.04177
H         80.54248      101.85412       86.60411
H         78.83228      103.16352       84.37361
H         78.20059      102.20455       85.75470
H         79.47531       99.78134       85.85572
H         79.39620       98.99222       84.26916
N         82.14130      101.80216       84.39290
C         83.31646      101.90540       83.52312
C         83.04755      102.72286       82.27325
O         83.98934      103.26809       81.71409
C         83.87319      100.50373       83.16948
C         82.82533       99.54081       82.63583
C         82.19230       99.73324       81.39435
C         82.46157       98.42699       83.41559
C         81.20296       98.84418       80.95836
C         81.47749       97.53980       82.97701
C         80.83992       97.74645       81.75202
O         79.88259       96.88597       81.35100
H         81.75252      100.87124       84.58787
H         84.11329      102.43885       84.08948
H         84.27801      100.09109       84.11921
H         84.72859      100.58150       82.46380
H         82.45485      100.56625       80.75930
H         82.92931       98.25042       84.37614
H         80.71722       99.01075       80.00508
H         81.20441       96.69547       83.59741
H         79.40883       96.99457       80.51442
N         81.79209      102.83986       81.76507
C         81.46681      103.68776       80.62797
C         81.67504      105.13147       81.04273
O         82.34511      105.88756       80.35434
C         79.98934      103.44437       80.21929
C         79.55340      104.19239       78.94826
C         80.33413      103.74809       77.74218
O         80.98742      104.55482       77.10062
O         80.30955      102.45643       77.35905
H         81.03061      102.31510       82.21532
H         82.10657      103.41555       79.75976
H         79.31356      103.73544       81.05330
H         79.84248      102.35585       80.04068
H         79.65716      105.28882       79.09752
H         78.48015      103.97353       78.75844
N         81.10586      105.55539       82.20398
C         81.14446      106.92139       82.71201
C         82.53317      107.33856       83.19615
O         82.68729      108.49166       83.57615
C         80.11615      107.06107       83.86681
C         78.69800      106.65666       83.40252
C         77.67468      106.65906       84.49883
O         77.82190      105.88406       85.58331
O         76.64389      107.28434       84.36666
H         80.58545      104.84994       82.74248
H         80.82630      107.60576       81.89407
H         80.09341      108.11098       84.22782
H         80.43715      106.41237       84.70647
H         78.67375      105.62677       83.00482
H         78.40140      107.33673       82.58106
N         83.58769      106.47224       83.23086
C         84.90056      106.86658       83.69677
H         85.30082      107.68752       83.06483
H         84.84566      107.20170       84.75422
H         85.59859      106.00326       83.63667
H         83.47258      105.49702       82.93246
Ca        75.56217      107.80383       86.86571
O         75.60380      109.02045       89.48375
H         76.15061      109.77516       89.81419
H         74.67126      109.34599       89.53329
O         78.01986      108.73333       87.67901
H         78.38328      109.32350       88.38416
H         78.79490      108.22880       87.32927

Ca 1.0



