%chk=holoCaM-CaMKII.loop1.water2.frame260.chk
%nprocshared=20
%mem=10GB
%nosave
#b3lyp/svp scf=(tight,noincore,xqc) Test 
#IOP(5/87=12) Density=Current Pop=(MK,readradii) iop(6/33=2) iop(6/42=6)

holoCaM-CaMKII.loop1.water2.frame260 

   0  1 
C         91.08524       90.81295       47.34231
C         91.20453       90.26763       45.95014
O         90.66246       90.88471       45.05713
H         90.01331       90.87388       47.62635
H         91.61545       90.17829       48.08180
H         91.52445       91.83285       47.36999
N         91.92123       89.13416       45.70083
C         92.15536       88.51250       44.38807
C         90.85854       87.95253       43.76341
O         90.67724       86.74226       43.73741
C         93.18961       87.37489       44.60417
C         93.66339       86.68390       43.36337
O         93.32962       87.05571       42.25024
O         94.48529       85.63122       43.49950
H         92.37793       88.70101       46.51914
H         92.62962       89.24953       43.70298
H         92.73899       86.61270       45.27489
H         94.09790       87.77538       45.10399
N         89.90633       88.77687       43.24100
C         88.61676       88.31989       42.73834
C         88.67353       87.52024       41.44275
O         87.64105       86.96760       41.08574
C         87.69403       89.52623       42.46756
C         87.35353       90.40185       43.68204
C         86.68937       89.60163       44.81512
C         85.75245       90.47056       45.66755
N         86.42385       91.58550       46.33362
H         90.06819       89.78124       43.24284
H         88.15840       87.67456       43.51904
H         86.72620       89.15210       42.06735
H         88.15410       90.17342       41.68651
H         86.63672       91.15408       43.28997
H         88.23161       90.95761       44.07529
H         87.46522       89.08584       45.42671
H         86.03319       88.82240       44.37204
H         85.25827       89.82736       46.42818
H         84.96067       90.87108       44.99582
H         87.10555       91.22999       47.04092
H         86.90623       92.20072       45.64059
H         85.69512       92.15803       46.81929
N         89.78600       87.44881       40.65734
C         89.81150       86.70210       39.39663
C         90.78054       85.52691       39.44853
O         90.85784       84.79507       38.47124
C         90.03593       87.64674       38.19063
C         91.33748       88.40089       38.16688
O         91.57497       89.15051       37.23319
O         92.24437       88.26903       39.14997
H         90.63590       87.94624       40.95418
H         88.81953       86.23618       39.20622
H         89.20692       88.38962       38.17053
H         89.96490       87.05013       37.25414
N         91.47615       85.21818       40.58197
C         92.24416       83.99377       40.72516
C         93.52650       83.93236       39.92907
O         94.15365       82.88220       39.95388
H         91.37625       85.80229       41.42000
H         91.58805       83.13486       40.47702
H         92.54952       83.88473       41.79085
N         94.04734       85.01897       39.28874
C         95.39329       85.00809       38.70854
C         96.49485       84.82870       39.76965
O         97.65181       84.72103       39.38649
C         95.65265       86.27706       37.85817
C         95.48183       87.59159       38.57472
O         95.65245       88.63197       37.96064
O         95.08714       87.63825       39.86095
H         93.49672       85.88651       39.25775
H         95.45712       84.14943       38.00251
H         94.93624       86.27317       37.00795
H         96.67927       86.22602       37.43339
N         96.21738       84.74452       41.10688
C         97.22294       84.49869       42.12801
C         97.98226       85.73808       42.55007
O         98.99534       85.58983       43.21788
H         95.25002       84.79152       41.42905
H         97.89378       83.67533       41.80117
H         96.72212       84.14249       43.05435
N         97.52253       86.99172       42.26555
C         98.16915       88.22485       42.73107
C         97.11264       89.28972       43.07456
O         95.93464       89.01795       42.90524
C         99.17122       88.73090       41.65806
C        100.27122       87.71065       41.32352
O         98.51063       89.10985       40.48008
H         96.64397       87.07386       41.73877
H         98.73213       88.01577       43.66853
H         99.68176       89.63003       42.06354
H         97.96521       88.34319       40.16643
H        100.83896       87.43592       42.23754
H         99.84284       86.79157       40.87007
H        100.98011       88.14514       40.58757
N         97.44414       90.50436       43.61710
C         96.43676       91.51941       43.96819
C         96.84390       92.88321       43.40436
O         97.86251       93.41669       43.82149
C         96.24681       91.56427       45.51690
C         95.72354       90.19297       46.02563
C         95.25825       92.67804       45.92768
C         95.79995       90.02788       47.54253
H         98.43263       90.69548       43.84183
H         95.44888       91.24697       43.53810
H         97.23778       91.77257       45.97783
H         96.33800       89.36745       45.61656
H         94.67722       90.04659       45.67771
H         95.12806       92.72687       47.02614
H         95.62755       93.67378       45.61376
H         94.26395       92.50231       45.46505
H         95.41372       89.02335       47.81765
H         96.86061       90.09573       47.86690
H         95.20002       90.78370       48.08402
N         96.08447       93.50838       42.45337
C         96.40012       94.82936       41.90432
C         95.97562       95.92757       42.87446
O         95.36428       95.63266       43.88807
C         95.68476       95.07015       40.53734
C         96.03117       94.00418       39.50315
O         94.29694       95.09032       40.71955
H         95.26374       93.01935       42.09008
H         97.49451       94.88127       41.71368
H         96.01617       96.05342       40.13755
H         93.86475       95.13094       39.82721
H         97.12756       93.88547       39.39521
H         95.55206       93.06374       39.81967
H         95.59745       94.27708       38.51657
N         96.23824       97.23512       42.59661
C         95.71217       98.35164       43.38738
C         94.18885       98.45728       43.22456
O         93.50550       98.81426       44.17346
C         96.40014       99.67970       42.98293
C         97.90871       99.63431       43.29352
O         96.19347       99.92872       41.61564
H         96.80934       97.44469       41.76446
H         95.94978       98.18929       44.46364
H         95.94901      100.50180       43.58588
H         96.51690      100.84968       41.43592
H         98.07464       99.44861       44.37668
H         98.41958       98.83550       42.71637
H         98.38447      100.60386       43.03522
N         93.60306       98.13928       42.03326
C         92.16035       98.11330       41.75956
C         91.45041       97.12900       42.68639
O         90.50330       97.52300       43.35219
C         91.97616       97.80839       40.24865
C         90.54348       97.56904       39.75070
C         90.54135       97.56568       38.20440
C         89.18114       97.23791       37.56812
N         88.81982       95.82906       37.73463
H         94.23528       97.86718       41.26601
H         91.71679       99.11987       41.92896
H         92.56519       96.91967       39.95701
H         92.40627       98.68394       39.71092
H         89.86556       98.37373       40.10559
H         90.19674       96.59613       40.15816
H         91.29769       96.85343       37.80710
H         90.83005       98.58828       37.87321
H         89.25308       97.44574       36.47621
H         88.39008       97.89736       37.98708
H         88.74819       95.57373       38.74376
H         87.89376       95.66008       37.27948
H         89.53315       95.22373       37.26510
N         91.89236       95.85018       42.82049
C         91.33763       94.87229       43.75471
C         91.36720       95.42472       45.16898
O         90.31431       95.47402       45.79052
C         92.08238       93.51724       43.59533
C         91.62343       92.87316       42.26504
C         92.27438       91.57520       41.88590
O         93.58925       91.49742       41.64665
O         91.59071       90.58943       41.68335
H         92.70448       95.57643       42.26661
H         90.26605       94.68188       43.51885
H         91.82192       92.84301       44.43034
H         93.18409       93.67005       43.62686
H         91.80698       93.57552       41.42915
H         90.52634       92.69488       42.33920
N         92.50891       95.91711       45.72022
C         92.54893       96.55609       47.02175
H         92.94038       97.59118       46.91402
H         91.54472       96.62674       47.49198
H         93.21740       95.98298       47.69369
H         93.38291       95.87519       45.18594
Ca        94.32974       89.54322       40.80180
O         96.56489       90.93521       39.66140
H         97.51947       91.15959       39.54173
H         96.16159       91.12660       38.77808
O         93.57244       91.41675       38.69700
H         92.65736       91.06005       38.81530
H         93.56195       91.85940       37.81279

Ca 1.0



