%chk=holoCaM-CaMKII.loop1.water2.frame106.chk
%nprocshared=20
%mem=10GB
%nosave
#b3lyp/svp scf=(tight,noincore,xqc) Test 
#IOP(5/87=12) Density=Current Pop=(MK,readradii) iop(6/33=2) iop(6/42=6)

holoCaM-CaMKII.loop1.water2.frame106 

   0  1 
C         27.21946       27.42358       44.21872
C         26.68172       26.37062       43.30261
O         26.21288       25.34519       43.77101
H         28.28968       27.60527       43.98676
H         26.64776       28.36388       44.06862
H         27.12465       27.10775       45.27861
N         26.70428       26.57316       41.96056
C         26.17010       25.61206       41.00818
C         26.97108       24.32167       41.06077
O         28.17414       24.36917       40.84187
C         26.21799       26.22570       39.60080
C         25.46934       25.43774       38.58075
O         25.35460       25.90573       37.46421
O         24.73748       24.36299       38.92235
H         27.09139       27.46500       41.61175
H         25.10041       25.43262       41.26619
H         27.26695       26.37364       39.26845
H         25.71955       27.22140       39.63982
N         26.36551       23.13068       41.33986
C         27.09912       21.87716       41.49087
C         27.01378       20.97812       40.26755
O         27.80009       20.04369       40.20140
C         26.60916       21.09199       42.72787
C         26.57084       21.88850       44.03968
C         27.92661       22.49271       44.41101
C         27.86798       23.16864       45.78524
N         29.14488       23.80674       46.09865
H         25.35299       23.12769       41.47994
H         28.17906       22.11179       41.60952
H         27.25861       20.19997       42.86607
H         25.57327       20.73051       42.53748
H         26.23688       21.19446       44.84227
H         25.81942       22.70023       43.96220
H         28.20900       23.25011       43.64923
H         28.69912       21.69422       44.43207
H         27.63286       22.40468       46.55953
H         27.06399       23.93676       45.80207
H         29.09369       24.22539       47.05488
H         29.91647       23.10105       46.07517
H         29.34057       24.56640       45.40615
N         26.11011       21.18284       39.26455
C         26.08931       20.38610       38.03608
C         26.34064       21.24574       36.79818
O         26.39638       20.69435       35.70716
C         24.78945       19.55830       37.93729
C         23.50663       20.33900       37.81685
O         23.49573       21.68484       37.77860
O         22.45071       19.73222       37.73903
H         25.41540       21.93199       39.36874
H         26.91438       19.64105       38.05466
H         24.72351       18.91205       38.84043
H         24.86427       18.88910       37.05188
N         26.55261       22.59063       36.88991
C         26.90750       23.43697       35.76685
C         25.84744       23.50458       34.69361
O         26.16152       23.19224       33.55423
H         26.53373       23.04993       37.80714
H         27.86620       23.07675       35.33507
H         27.08152       24.46989       36.13697
N         24.58602       23.94901       34.96973
C         23.56606       24.14442       33.93528
C         23.11913       25.60521       33.80982
O         22.37471       25.89916       32.88461
C         22.37471       23.18346       34.15128
C         21.60288       23.36658       35.43107
O         20.55506       22.56230       35.69027
O         21.90763       24.22497       36.23848
H         24.35384       24.16725       35.94774
H         23.99449       23.88494       32.94312
H         22.76113       22.14189       34.13443
H         21.66400       23.29905       33.30482
N         23.53346       26.57358       34.67896
C         23.21723       27.98740       34.54837
C         22.34339       28.50839       35.67246
O         22.22570       29.72023       35.78491
H         24.12670       26.32389       35.47371
H         22.71060       28.22389       33.58830
H         24.18304       28.53911       34.55376
N         21.62848       27.67131       36.48285
C         20.71193       28.14241       37.52395
C         20.99165       27.41071       38.85689
O         22.36141       27.28791       39.01313
C         19.24961       27.91988       37.06558
C         18.89890       28.78275       35.84657
O         18.99465       26.56292       36.79780
H         21.68298       26.65921       36.31979
H         20.86412       29.23044       37.70090
H         18.55968       28.23730       37.87281
H         19.44588       26.31801       35.94747
H         19.53706       28.52413       34.97519
H         17.83716       28.61920       35.56774
H         19.04181       29.85683       36.09027
N         20.44953       28.13285       40.01833
C         20.71472       27.48114       41.32636
C         19.42390       26.90595       41.91162
O         18.43409       27.62327       41.97155
C         21.32982       28.51204       42.32827
C         22.51113       29.29710       41.69776
C         21.80060       27.78332       43.60916
C         23.05810       30.40345       42.60783
H         19.46050       28.44239       39.89743
H         21.47580       26.67375       41.21744
H         20.54242       29.25195       42.59310
H         22.15497       29.80370       40.77607
H         23.33651       28.60574       41.41952
H         22.17054       28.48831       44.37830
H         20.96942       27.23290       44.07908
H         22.61307       27.06074       43.37099
H         23.83821       30.97822       42.06682
H         22.24280       31.10156       42.89632
H         23.52801       29.99141       43.52315
N         19.39565       25.65934       42.46342
C         18.23088       25.11908       43.16586
C         18.46803       25.16705       44.65953
O         19.55202       25.51545       45.09357
C         17.92874       23.66211       42.73481
C         17.41300       23.55513       41.29934
O         19.05802       22.85202       42.93803
H         20.27324       25.12801       42.50132
H         17.33446       25.75001       42.97992
H         17.11106       23.24912       43.36240
H         19.64459       22.92356       42.14102
H         16.46854       24.12766       41.18874
H         18.16238       23.95345       40.59886
H         17.21457       22.48945       41.05152
N         17.46118       24.86275       45.51729
C         17.60658       24.90886       46.96778
C         18.64295       23.90576       47.45049
O         19.49053       24.29293       48.24283
C         16.24300       24.71730       47.66970
C         15.32017       25.91601       47.37339
O         15.64533       23.51541       47.25657
H         16.54469       24.61238       45.11553
H         17.96002       25.92160       47.27220
H         16.42030       24.68949       48.76934
H         14.80990       23.41326       47.78309
H         14.35698       25.80490       47.91270
H         15.79749       26.85853       47.72152
H         15.10746       26.01207       46.28844
N         18.67589       22.62113       46.98407
C         19.68582       21.65193       47.41542
C         21.09530       22.19601       47.23044
O         21.89255       22.12321       48.15530
C         19.52583       20.27371       46.70712
C         19.84509       20.24720       45.19660
C         19.72762       18.82859       44.61504
C         20.16348       18.73416       43.13805
N         19.27126       19.46287       42.23687
H         17.97556       22.33292       46.28441
H         19.53110       21.45318       48.49979
H         18.49015       19.90533       46.87198
H         20.22078       19.56159       47.20562
H         20.89707       20.55675       45.04453
H         19.16455       20.93990       44.66505
H         18.68880       18.45102       44.72598
H         20.40458       18.16314       45.19459
H         20.15777       17.66171       42.84341
H         21.20516       19.11083       43.02267
H         19.58537       19.31271       41.25096
H         18.29083       19.11378       42.33657
H         19.30800       20.48314       42.43370
N         21.45443       22.77293       46.05204
C         22.79660       23.26061       45.75458
C         23.17939       24.36737       46.72345
O         24.18850       24.23719       47.40264
C         22.88934       23.70771       44.27126
C         22.58279       22.51837       43.32570
C         22.66305       22.85628       41.86811
O         21.95662       23.88066       41.36651
O         23.29764       22.14250       41.11007
H         20.72400       22.86152       45.33197
H         23.52212       22.42406       45.87531
H         23.91315       24.08137       44.06636
H         22.17418       24.53725       44.07975
H         21.55219       22.16453       43.48877
H         23.27045       21.67222       43.54504
N         22.38885       25.46250       46.88088
C         22.67486       26.50135       47.84607
H         23.64055       26.99182       47.60631
H         21.86800       27.26593       47.82712
H         22.71750       26.06760       48.86869
H         21.53474       25.54837       46.32346
Ca        22.65905       25.06164       38.89866
O         20.44467       21.70279       39.55073
H         19.49979       21.96719       39.42257
H         20.47314       20.75497       39.26825
O         19.37111       24.58057       38.62048
H         20.09248       24.31552       38.00136
H         18.54983       24.19991       38.21837

Ca 1.0



