%chk=holoCaM.loop2.water1.frame247.chk
%nprocshared=20
%mem=10GB
%nosave
#b3lyp/svp scf=(tight,noincore,xqc) Test 
#IOP(5/87=12) Density=Current Pop=(MK,readradii) iop(6/33=2) iop(6/42=6)

holoCaM.loop2.water1.frame247 

   -2  1 
C         65.60508       88.79928       48.61024
C         65.45562       89.62411       47.36557
O         64.33857       89.93002       46.97363
H         66.20866       89.35449       49.35848
H         64.61456       88.55948       49.05098
H         66.12378       87.84827       48.36243
N         66.56562       90.01644       46.68402
C         66.52370       90.78537       45.44484
C         65.76502       90.01820       44.37128
O         66.07983       88.86734       44.10357
C         67.95204       91.17719       45.02877
C         68.02680       91.85682       43.68793
O         67.37274       92.99992       43.35811
O         68.69338       91.31168       42.82876
H         67.48467       89.74338       47.06794
H         66.00316       91.73104       45.62310
H         68.57097       90.25190       44.98182
H         68.39113       91.84027       45.80409
N         64.74045       90.63432       43.71449
C         63.88033       90.00705       42.72272
C         64.16231       90.52546       41.32019
O         63.49157       90.08784       40.39541
C         62.42041       90.27711       43.10989
H         64.56662       91.62662       43.91115
H         64.04562       88.90817       42.70155
H         62.21408       89.87897       44.12595
H         62.21852       91.37175       43.11336
H         61.72427       89.79288       42.39303
N         65.17211       91.40978       41.07418
C         65.54991       91.86434       39.74258
C         66.94754       91.37183       39.38676
O         67.43095       91.70990       38.31432
C         65.55000       93.40728       39.71423
C         64.23834       93.99487       40.14535
O         63.21713       93.75354       39.52304
O         64.18908       94.80162       41.22348
H         65.74341       91.75865       41.85392
H         64.84314       91.48264       38.97341
H         65.78820       93.76636       38.68915
H         66.33986       93.78144       40.40163
N         67.67920       90.60291       40.24936
C         69.06175       90.22990       40.01435
C         70.02602       91.41005       40.02058
O         71.20311       91.16378       39.79752
H         67.25762       90.25371       41.11994
H         69.13206       89.69023       39.04521
H         69.38909       89.53099       40.81551
N         69.63132       92.70864       40.22574
C         70.55668       93.82351       40.04213
C         71.60560       93.93921       41.14345
O         72.63400       94.55141       40.89324
C         69.82245       95.15552       39.78468
C         69.19612       95.77497       41.00739
N         69.56875       97.01682       41.39638
O         68.34256       95.17135       41.63839
H         68.64252       92.92442       40.39610
H         71.08343       93.61159       39.08395
H         69.03836       94.99439       39.01197
H         70.55646       95.87375       39.36106
H         70.27783       97.54861       40.87175
H         69.14431       97.46201       42.21689
N         71.41596       93.39418       42.38257
C         72.44313       93.36388       43.41569
C         72.10453       94.13273       44.67892
O         72.89091       94.04016       45.61100
H         70.52101       92.94037       42.60071
H         73.41013       93.76269       43.04133
H         72.60730       92.29897       43.68622
N         71.01373       94.94722       44.78776
C         70.73834       95.75160       45.98344
C         69.35317       95.45180       46.54493
O         68.64952       94.60366       46.01424
C         70.94211       97.25522       45.65807
C         72.41328       97.55425       45.34520
O         70.14030       97.62794       44.57346
H         70.38156       95.05412       43.98018
H         71.44667       95.50728       46.80553
H         70.67481       97.86759       46.54650
H         70.14044       98.62057       44.54040
H         72.75599       96.98943       44.45390
H         72.54455       98.63983       45.15060
H         73.04803       97.28225       46.21621
N         68.91330       96.11727       47.65299
C         67.64427       95.86882       48.32351
C         66.72185       97.05380       48.09991
O         67.08818       98.18298       48.39534
C         67.89511       95.59505       49.84114
C         68.68271       94.26844       50.00437
C         66.57222       95.54760       50.63447
C         69.08691       93.95451       51.44718
H         69.51139       96.84798       48.06473
H         67.14328       94.96982       47.90554
H         68.49704       96.43392       50.25738
H         69.61945       94.32508       49.41059
H         68.07504       93.42298       49.61131
H         66.04106       96.51663       50.55869
H         65.91315       94.73613       50.26163
H         66.75343       95.40508       51.71744
H         68.20416       93.80074       52.09970
H         69.67470       93.01282       51.46566
H         69.71358       94.77398       51.85746
N         65.45835       96.82604       47.64236
C         64.42611       97.84015       47.50714
C         63.53521       97.78019       48.73441
O         63.75675       96.92150       49.57238
C         63.62487       97.57401       46.21449
C         64.52013       97.59008       45.00557
O         65.11387       98.61811       44.72486
O         64.61240       96.52143       44.17594
H         65.16019       95.85615       47.50817
H         64.88434       98.85385       47.47809
H         62.83936       98.35025       46.09007
H         63.12417       96.58307       46.28183
N         62.54886       98.69116       48.96170
C         61.79109       98.67800       50.21062
C         60.96796       97.39734       50.37584
O         61.17482       96.73807       51.38512
C         60.96231       99.96817       50.40310
C         60.20922       99.95230       51.71657
C         60.89513       99.83329       52.94105
C         58.80687      100.04708       51.72696
C         60.18916       99.80005       54.14662
C         58.10583      100.01908       52.93642
C         58.79586       99.89314       54.14467
H         62.39045       99.44383       48.27420
H         62.53515       98.70239       51.03851
H         60.26086      100.12681       49.56870
H         61.65212      100.83978       50.39758
H         61.97440       99.76035       52.96842
H         58.25462      100.13970       50.80016
H         60.72346       99.70105       55.08287
H         57.02625      100.09247       52.93657
H         58.25129       99.86790       55.07953
N         60.03914       96.95244       49.46819
C         59.27301       95.71585       49.62538
C         60.13766       94.51363       49.95121
O         59.79571       93.73642       50.83065
C         58.62872       95.51635       48.24558
C         58.40761       96.93863       47.80184
C         59.72327       97.59324       48.20593
H         58.49173       95.86770       50.40310
H         59.36690       95.08478       47.53018
H         57.72695       94.86738       48.25194
H         58.13363       97.07108       46.73410
H         57.59542       97.36366       48.43664
H         60.54210       97.37952       47.48302
H         59.53515       98.67463       48.26769
N         61.29953       94.33024       49.27177
C         62.20761       93.20489       49.46316
C         62.66906       93.13391       50.90651
O         62.49101       92.09810       51.53143
C         63.40792       93.34083       48.50493
C         62.94474       93.31550       47.03273
C         64.05369       93.57193       46.07462
O         65.31585       93.74973       46.50583
O         63.79899       93.65546       44.88527
H         61.55371       95.06127       48.59222
H         61.68415       92.25601       49.20851
H         64.12733       92.50808       48.67057
H         63.92937       94.29785       48.71847
H         62.19885       94.10717       46.83183
H         62.48019       92.33416       46.79934
N         63.23156       94.21645       51.51009
C         63.64570       94.24513       52.89690
H         64.72049       94.51215       52.95585
H         63.05611       95.01802       53.43459
H         63.49320       93.27077       53.40499
H         63.34501       95.08118       50.97326
Ca        66.18380       94.82124       44.10923
O         67.47351       97.45633       44.05860
H         67.00388       97.32408       43.19680
H         67.65256       98.42963       44.09170

Ca 1.0



