%chk=holoCaM.loop2.water2.frame146.chk
%nprocshared=20
%mem=10GB
%nosave
#b3lyp/svp scf=(tight,noincore,xqc) Test 
#IOP(5/87=12) Density=Current Pop=(MK,readradii) iop(6/33=2) iop(6/42=6)

holoCaM.loop2.water2.frame146 

   -2  1 
C         -8.37711       79.94691        5.90698
C         -7.75595       78.61078        6.19190
O         -6.63690       78.55361        6.68175
H         -9.31369       80.04471        6.49952
H         -7.69533       80.77454        6.19443
H         -8.62487       80.02973        4.82914
N         -8.47225       77.48016        5.95704
C         -8.01823       76.15616        6.35568
C         -6.88940       75.62600        5.46987
O         -7.05129       75.64742        4.25726
C         -9.19717       75.16060        6.28610
C         -8.89886       73.93282        7.09128
O         -9.66107       72.98252        7.06432
O         -7.80691       73.91759        7.88156
H         -9.42902       77.58685        5.58340
H         -7.70905       76.23510        7.42189
H         -9.41517       74.90680        5.22515
H        -10.11374       75.60243        6.73130
N         -5.75608       75.06909        6.00269
C         -4.67011       74.52193        5.18477
C         -4.38496       73.02839        5.40453
O         -3.52811       72.52121        4.69289
C         -3.39379       75.31906        5.47511
H         -5.65310       75.04203        7.02521
H         -4.90822       74.64183        4.10579
H         -2.55536       74.96956        4.83476
H         -3.56169       76.39712        5.27002
H         -3.09994       75.19951        6.54111
N         -4.99864       72.26651        6.36283
C         -4.62883       70.86903        6.63242
C         -5.81217       69.89703        6.51316
O         -5.68161       68.93141        5.77302
C         -3.79485       70.77469        7.94265
C         -4.31100       71.52739        9.14299
O         -5.41080       71.14394        9.80404
O         -3.71120       72.51752        9.53150
H         -5.69317       72.70483        6.98042
H         -3.90425       70.50327        5.86910
H         -2.81739       71.24964        7.69620
H         -3.57680       69.71618        8.20110
N         -6.99406       70.08536        7.16418
C         -8.14928       69.19601        7.05950
C         -8.63485       68.65155        8.39968
O         -9.61428       67.91922        8.39710
H         -7.10716       70.92743        7.71469
H         -7.93136       68.33036        6.39864
H         -8.98387       69.76910        6.60087
N         -8.00682       68.93953        9.57730
C         -8.39685       68.39433       10.88284
C         -9.73589       68.91169       11.44166
O        -10.07076       68.53676       12.55706
C         -7.24198       68.60006       11.90150
C         -6.89513       70.02714       12.25166
N         -5.86711       70.27783       13.09368
O         -7.52266       70.95913       11.77923
H         -7.15564       69.50802        9.53764
H         -8.48383       67.28991       10.78046
H         -6.32939       68.12637       11.47665
H         -7.48735       68.06579       12.84430
H         -5.31541       69.50564       13.49472
H         -5.61650       71.24544       13.34095
N        -10.57398       69.72451       10.73318
C        -11.87478       70.17444       11.22250
C        -11.83013       71.27280       12.27601
O        -12.89888       71.70112       12.69015
H        -10.33793       69.97127        9.76809
H        -12.45262       69.30023       11.59464
H        -12.43797       70.60156       10.36440
N        -10.66184       71.79682       12.74325
C        -10.57332       72.87976       13.72512
C         -9.78016       74.05260       13.15684
O         -9.31316       73.96280       12.02968
C         -9.90508       72.33979       15.01435
C        -10.77381       71.26328       15.66943
O         -8.64159       71.79240       14.73196
H         -9.77834       71.41238       12.39526
H        -11.58332       73.26484       13.98998
H         -9.80236       73.15133       15.76933
H         -8.01965       72.55187       14.58617
H        -10.29023       70.90531       16.60246
H        -11.77019       71.68206       15.92857
H        -10.91391       70.39554       14.99059
N         -9.55380       75.17999       13.89538
C         -8.73632       76.28969       13.41188
C         -7.45655       76.32395       14.23102
O         -7.51362       76.56258       15.43077
C         -9.50489       77.64483       13.47401
C        -10.83080       77.57123       12.67337
C         -8.60691       78.77917       12.94556
C        -11.65893       78.86008       12.72692
H         -9.93211       75.23892       14.85364
H         -8.45783       76.12093       12.34871
H         -9.75449       77.86291       14.53665
H        -11.46010       76.75988       13.09691
H        -10.62400       77.33126       11.61069
H         -9.09688       79.76549       13.04716
H         -7.67691       78.83914       13.53956
H         -8.34588       78.61094       11.87891
H        -11.88320       79.13515       13.77912
H        -11.13634       79.70228       12.22906
H        -12.61602       78.70775       12.18583
N         -6.25939       76.05549       13.63675
C         -4.98559       76.04241       14.35571
C         -4.57536       77.45873       14.74541
O         -5.27037       78.39811       14.39927
C         -3.87782       75.40548       13.48139
C         -4.16480       73.96912       13.12173
O         -5.12884       73.67630       12.43282
O         -3.33309       72.99558       13.53923
H         -6.26287       75.81901       12.63473
H         -5.09266       75.41888       15.27153
H         -2.92306       75.41202       14.04586
H         -3.73543       75.99577       12.55034
N         -3.44482       77.68852       15.47468
C         -2.99485       79.03424       15.82346
C         -2.61649       79.85884       14.58671
O         -3.18232       80.93615       14.44645
C         -1.83921       78.99062       16.84808
C         -1.41471       80.38294       17.26714
C         -2.32851       81.25408       17.89114
C         -0.10180       80.82659       17.03161
C         -1.93722       82.54359       18.26163
C          0.28576       82.11708       17.40773
C         -0.63143       82.97520       18.01997
H         -2.89957       76.88077       15.81019
H         -3.83803       79.54172       16.34194
H         -0.97983       78.43243       16.43240
H         -2.17473       78.43821       17.75235
H         -3.34520       80.94087       18.08969
H          0.62119       80.17738       16.55406
H         -2.64781       83.20864       18.73576
H          1.29752       82.45339       17.22247
H         -0.33079       83.97439       18.30773
N         -1.69949       79.46301       13.63947
C         -1.31302       80.27832       12.48855
C         -2.40105       80.40646       11.42416
O         -2.13464       81.02467       10.40367
C         -0.06415       79.56814       11.95530
C         -0.38274       78.12130       12.24251
C         -0.96410       78.21124       13.65041
H         -1.01364       81.30479       12.79701
H          0.21561       79.81022       10.90745
H          0.79616       79.83817       12.61084
H         -1.19064       77.81165       11.54024
H          0.46773       77.41403       12.14262
H         -1.59631       77.32087       13.81128
H         -0.15527       78.27503       14.40677
N         -3.65634       79.91217       11.61065
C         -4.75686       80.11351       10.68142
C         -5.64494       81.20592       11.24697
O         -5.85441       82.20307       10.57003
C         -5.51079       78.78403       10.47274
C         -4.59124       77.71644        9.85355
C         -5.25668       76.37751        9.70095
O         -6.54011       76.18723       10.05986
O         -4.61416       75.43894        9.26074
H         -3.88470       79.42563       12.48208
H         -4.39201       80.46309        9.68896
H         -6.38291       78.95070        9.80232
H         -5.88452       78.41649       11.45372
H         -3.70391       77.57154       10.50518
H         -4.24673       78.06178        8.85428
N         -6.14077       81.11716       12.51258
C         -6.90177       82.16548       13.16017
H         -7.88841       81.77197       13.47489
H         -6.35185       82.50222       14.06530
H         -7.06027       83.04411       12.50196
H         -5.93641       80.28325       13.07143
Ca        -7.18683       72.43755        9.41724
O        -10.15588       72.65341        9.89516
H         -9.77645       72.00450        9.25531
H        -10.89914       73.09029        9.41194
O         -9.55903       75.83004        9.65319
H         -9.09217       76.68030        9.84921
H        -10.38888       76.10677        9.19065

Ca 1.0



