%chk=holoCaM.loop4.water3.frame297.chk
%nprocshared=20
%mem=10GB
%nosave
#b3lyp/svp scf=(tight,noincore,xqc) Test 
#IOP(5/87=12) Density=Current Pop=(MK,readradii) iop(6/33=2) iop(6/42=6)

holoCaM.loop4.water3.frame297 

   -3  1 
C         38.98646       36.16239       79.31259
C         38.68572       37.37090       80.14273
O         38.32013       38.39339       79.59003
H         40.04238       35.85903       79.46550
H         38.31480       35.33140       79.61382
H         38.82496       36.37864       78.23435
N         38.80227       37.31756       81.49554
C         38.49430       38.43928       82.36951
C         39.71563       38.78500       83.20161
O         40.20674       37.92858       83.92395
C         37.28275       38.05999       83.23500
C         36.88950       39.15735       84.17274
O         36.82837       38.91185       85.49450
O         36.61622       40.26738       83.74474
H         39.09624       36.42864       81.92983
H         38.19928       39.33379       81.77617
H         37.49842       37.13892       83.81859
H         36.42106       37.85174       82.56365
N         40.25101       40.03958       83.14688
C         41.43131       40.45444       83.90389
C         41.10080       41.51502       84.95682
O         41.99900       41.87004       85.70781
C         42.55990       40.95560       82.93954
C         42.11761       42.18619       82.10040
C         43.02844       39.80725       82.02800
C         43.25291       42.87142       81.33711
H         39.79391       40.73427       82.54190
H         41.83392       39.59153       84.47789
H         43.42333       41.25991       83.57186
H         41.69442       42.95312       82.77803
H         41.34326       41.88629       81.36789
H         42.20532       39.47006       81.36169
H         43.88709       40.11591       81.39856
H         43.36537       38.94675       82.64282
H         43.71843       42.19756       80.59134
H         42.84579       43.74864       80.78861
H         44.02626       43.23244       82.04738
N         39.86535       42.09140       85.05749
C         39.57134       43.20220       85.96523
C         38.19351       43.08227       86.65474
O         37.86863       43.96571       87.43548
C         39.80013       44.52555       85.19194
C         39.08508       44.51994       83.88154
O         37.75884       44.45912       83.87856
O         39.69838       44.50367       82.82752
H         39.14666       41.85144       84.36169
H         40.30691       43.22783       86.79925
H         40.88795       44.60638       84.97423
H         39.50863       45.40753       85.80139
N         37.37056       41.99841       86.48839
C         36.14267       41.76061       87.25678
C         34.96106       42.69329       86.99824
O         33.95591       42.53922       87.67710
H         37.67622       41.23841       85.87370
H         36.39992       41.80440       88.33793
H         35.78359       40.73045       87.04896
N         35.00486       43.69184       86.07773
C         33.96253       44.72016       85.92494
C         32.65357       44.29153       85.24070
O         31.79884       45.15270       85.07912
C         34.57427       45.92954       85.18872
C         35.07433       45.60640       83.81270
O         34.84751       44.40381       83.24905
O         35.75059       46.42894       83.21760
H         35.88154       43.80181       85.55358
H         33.70230       45.09837       86.93858
H         35.45137       46.25997       85.78936
H         33.86139       46.77926       85.13832
N         32.39546       43.01879       84.82381
C         31.13318       42.63652       84.18426
C         30.96395       43.10438       82.73566
O         29.93352       42.80433       82.15236
H         33.08069       42.28023       85.02415
H         30.28343       42.99389       84.80661
H         31.07612       41.52708       84.15393
N         31.94394       43.78477       82.07845
C         31.92268       44.16548       80.66579
C         33.05407       43.45900       79.92681
O         33.82615       42.74815       80.55472
C         32.12579       45.68936       80.53125
C         30.96522       46.50260       81.11712
C         31.15652       47.99244       80.93365
N         30.18791       48.84835       81.32973
O         32.17533       48.43542       80.42096
H         32.78336       44.01445       82.59288
H         30.96559       43.86628       80.18624
H         32.20329       45.95719       79.45558
H         33.08005       45.97829       81.02880
H         30.85456       46.28502       82.20103
H         30.03153       46.20567       80.59300
H         29.31738       48.49612       81.75324
H         30.30374       49.86478       81.20148
N         33.20499       43.61179       78.57336
C         34.28595       42.98263       77.81951
C         35.09413       44.05700       77.10486
O         34.57125       44.69733       76.20332
C         33.71442       41.95437       76.80000
C         34.84027       41.21552       76.05701
C         32.81459       40.92007       77.49137
H         32.52348       44.18385       78.05330
H         34.95599       42.42882       78.51139
H         33.09034       42.49154       76.05081
H         35.46711       41.92459       75.48731
H         35.48463       40.65967       76.77174
H         34.41472       40.49527       75.32672
H         31.95014       41.41701       77.97933
H         32.40764       40.20907       76.74022
H         33.38420       40.35028       78.25571
N         36.38755       44.30564       77.45977
C         37.24519       45.24989       76.74106
C         37.61198       44.66334       75.38242
O         37.30692       43.50906       75.12892
C         38.50238       45.53810       77.61031
C         39.53007       46.48331       77.03992
N         39.20364       47.74393       76.67546
O         40.68901       46.11183       76.93985
H         36.77633       43.79500       78.26411
H         36.69165       46.20473       76.60544
H         39.00383       44.57566       77.85101
H         38.16026       45.99457       78.55835
H         38.23722       48.08695       76.76238
H         39.92424       48.37625       76.29550
N         38.25409       45.40648       74.44221
C         38.73280       44.84715       73.17956
C         39.85698       43.85123       73.42579
O         39.84351       42.78720       72.82416
C         39.08657       45.96282       72.17006
C         40.07176       47.00570       72.64344
C         41.43984       46.72160       72.78048
C         39.61055       48.30296       72.93124
C         42.32613       47.71529       73.21018
C         40.49439       49.29091       73.36333
C         41.85711       49.00086       73.50469
O         42.72157       49.94923       73.91698
H         38.40608       46.40487       74.63220
H         37.89914       44.30004       72.68111
H         38.12015       46.47170       71.95623
H         39.42871       45.52871       71.20552
H         41.82506       45.73855       72.54513
H         38.56068       48.55040       72.83013
H         43.37941       47.48679       73.31028
H         40.11653       50.28080       73.58615
H         42.43282       50.84955       74.12538
N         40.83555       44.10439       74.34345
C         41.89912       43.15327       74.66875
C         41.36094       41.87757       75.34382
O         42.12903       40.94368       75.52203
C         42.95459       43.85479       75.56554
C         44.28971       43.10325       75.71741
C         44.98877       42.95271       74.39391
O         45.25603       41.84374       73.96036
O         45.32620       44.04524       73.68082
H         40.82814       45.01866       74.81051
H         42.38456       42.88365       73.70557
H         42.51414       44.03840       76.57010
H         43.19704       44.84622       75.12171
H         44.13672       42.11391       76.19275
H         44.95318       43.68935       76.38864
N         40.05005       41.75497       75.71616
C         39.46377       40.55099       76.30018
C         38.54010       39.84118       75.31911
O         38.21102       38.69071       75.57516
C         38.60820       40.91899       77.52717
C         39.39283       41.52404       78.69584
C         38.48055       41.91837       79.83207
O         38.99614       42.51614       80.91724
O         37.27647       41.72118       79.78073
H         39.42001       42.54389       75.56788
H         40.26266       39.82635       76.57406
H         38.07758       40.01670       77.88386
H         37.83156       41.64688       77.20110
H         39.92999       42.43056       78.35068
H         40.13684       40.78783       79.06961
N         38.03537       40.46348       74.21605
C         37.12777       39.83409       73.28159
H         36.16508       40.38743       73.28179
H         37.56633       39.88029       72.26350
H         36.92533       38.77302       73.53393
H         38.26319       41.44243       74.02788
Ca        36.55654       43.26437       82.44301
O         35.17526       39.88687       80.77277
H         35.92410       39.41887       80.32737
H         34.47544       39.19400       80.87144
O         36.91956       45.08405       80.43751
H         37.69746       45.34893       80.98975
H         36.16614       45.62793       80.77410
O         33.88534       40.72203       83.22736
H         33.09374       40.26561       82.84881
H         34.02166       40.28953       84.10787

Ca 1.0



