%chk=holoCaM-CaMKII.loop1.water2.frame415.chk
%nprocshared=20
%mem=10GB
%nosave
#b3lyp/svp scf=(tight,noincore,xqc) Test 
#IOP(5/87=12) Density=Current Pop=(MK,readradii) iop(6/33=2) iop(6/42=6)

holoCaM-CaMKII.loop1.water2.frame415 

   0  1 
C         52.75489       54.47077       32.62853
C         54.22477       54.29678       32.41669
O         54.63903       53.25403       31.93580
H         52.20327       53.56658       32.29386
H         52.55495       54.63740       33.70740
H         52.39953       55.34643       32.04644
N         55.08285       55.29828       32.74673
C         56.52150       55.19247       32.55490
C         57.08123       54.06405       33.42299
O         56.95198       54.10378       34.63778
C         57.17670       56.56144       32.82502
C         58.65429       56.56367       32.58684
O         59.11299       56.23182       31.50641
O         59.47750       56.97758       33.56264
H         54.68815       56.17350       33.12675
H         56.70710       54.96988       31.47966
H         56.97116       56.89300       33.86521
H         56.72615       57.30422       32.12892
N         57.71270       53.01640       32.82452
C         58.24037       51.82729       33.48585
C         59.75424       51.92906       33.55303
O         60.29352       51.94316       34.65080
C         57.82269       50.56845       32.66782
C         56.32044       50.24954       32.74440
C         55.99504       49.37994       33.96981
C         54.49083       49.11204       34.13330
N         53.79062       50.28433       34.66066
H         57.83473       53.06816       31.81308
H         57.86768       51.75186       34.53130
H         58.39963       49.66467       32.96442
H         58.07357       50.76299       31.60199
H         56.03427       49.64675       31.85282
H         55.74192       51.18911       32.70861
H         56.39216       49.81898       34.90814
H         56.50209       48.40193       33.80658
H         54.36188       48.27991       34.86020
H         54.04333       48.78722       33.16655
H         54.17900       50.52569       35.60234
H         53.88549       51.10426       34.02185
H         52.77676       50.05582       34.77193
N         60.50934       51.99049       32.41968
C         61.97336       52.05344       32.42793
C         62.55669       53.34141       33.03691
O         63.76928       53.39588       33.18943
C         62.53758       51.81105       31.00542
C         62.06251       52.80886       29.98650
O         61.16200       53.74244       30.33500
O         62.48751       52.76792       28.84354
H         60.02013       51.92538       31.51654
H         62.33811       51.20864       33.05334
H         62.23505       50.79891       30.65993
H         63.64794       51.83767       31.05164
N         61.78484       54.38736       33.45394
C         62.32424       55.52390       34.19246
C         63.21582       56.45386       33.39318
O         64.34627       56.67772       33.80122
H         60.76316       54.35027       33.33380
H         62.86128       55.15033       35.09140
H         61.48577       56.13916       34.56895
N         62.73894       57.09841       32.29091
C         63.45770       58.16977       31.59249
C         62.65209       59.46882       31.59482
O         63.04091       60.40163       30.90515
C         63.89312       57.72258       30.17603
C         62.82037       57.26075       29.23626
O         61.52237       57.31126       29.56360
O         63.14485       56.73260       28.18470
H         61.79272       56.85424       31.96492
H         64.41496       58.40707       32.10638
H         64.57886       56.85906       30.31956
H         64.47296       58.53122       29.68025
N         61.55367       59.62973       32.39560
C         60.77005       60.85601       32.44710
C         59.90968       61.07979       31.21935
O         59.21112       62.08492       31.18730
H         61.27918       58.88269       33.04709
H         61.44546       61.72174       32.62087
H         60.07179       60.79407       33.31018
N         59.87962       60.19319       30.18532
C         59.03676       60.33244       29.00567
C         58.12615       59.12365       28.85451
O         58.26795       58.15261       29.58944
C         59.91778       60.52773       27.74400
C         60.57165       61.91634       27.71243
O         60.88920       59.51491       27.64066
H         60.47083       59.35749       30.23035
H         58.36582       61.21429       29.10664
H         59.28124       60.47867       26.83544
H         61.64794       59.74481       28.24051
H         59.78455       62.69988       27.69480
H         61.22094       62.07682       28.59857
H         61.18643       62.01749       26.79256
N         57.12406       59.14500       27.93356
C         56.17599       58.05664       27.71979
C         56.22797       57.65229       26.25795
O         56.09285       58.51760       25.40011
C         54.73277       58.49423       28.11113
C         54.68923       58.97583       29.58613
C         53.75141       57.31887       27.89271
C         53.31942       59.50611       30.01924
H         57.00078       60.00169       27.36860
H         56.42634       57.18194       28.36052
H         54.42791       59.34164       27.45716
H         55.40805       59.81265       29.71561
H         54.99151       58.15073       30.26819
H         52.70516       57.61374       28.10145
H         53.76459       56.97811       26.83817
H         54.02135       56.45957       28.54497
H         53.38324       59.88791       31.05965
H         53.00136       60.33759       29.35492
H         52.54885       58.70954       30.00827
N         56.35333       56.34486       25.90084
C         56.36311       55.88048       24.51921
C         55.05147       55.15764       24.21855
O         54.26293       54.91512       25.12391
C         57.64849       55.02811       24.30670
C         57.82206       54.42605       22.90884
O         58.75881       55.84425       24.57042
H         56.39066       55.63146       26.64159
H         56.39495       56.75083       23.82667
H         57.62052       54.18935       25.04083
H         59.52821       55.24198       24.74865
H         57.03297       53.68518       22.69270
H         57.82792       55.22270       22.13571
H         58.78617       53.87615       22.85779
N         54.72309       54.85608       22.93340
C         53.47471       54.21400       22.51868
C         53.30185       52.85502       23.17324
O         52.20971       52.55305       23.62933
C         53.42200       54.07400       20.97937
C         53.34088       55.46519       20.31088
O         54.53404       53.32592       20.53607
H         55.39406       55.12476       22.20061
H         52.60983       54.84719       22.82242
H         52.49231       53.52975       20.70253
H         54.85009       53.68014       19.66531
H         54.23908       56.08049       20.52341
H         53.24854       55.35322       19.21042
H         52.44443       56.01112       20.67560
N         54.35566       52.00461       23.29001
C         54.30248       50.72859       23.99847
C         53.85837       50.92811       25.43593
O         52.95073       50.23380       25.87364
C         55.69848       50.06514       23.98706
C         56.08874       49.59822       22.57591
C         57.52896       49.07790       22.53622
C         57.86895       48.53614       21.14099
N         59.27141       48.13127       21.06132
H         55.25735       52.31014       22.90148
H         53.58461       50.03697       23.50263
H         55.69826       49.16953       24.64824
H         56.44838       50.78625       24.38386
H         56.00876       50.43440       21.84974
H         55.38443       48.79495       22.26505
H         57.66724       48.26736       23.28488
H         58.21477       49.91739       22.78679
H         57.67584       49.31901       20.37415
H         57.21659       47.66131       20.92043
H         59.48162       47.40186       21.78042
H         59.45931       47.73763       20.11099
H         59.88907       48.96262       21.20895
N         54.46062       51.85682       26.23171
C         54.13943       52.01226       27.65187
C         52.68694       52.41744       27.89698
O         52.24569       52.32323       29.03404
C         55.08784       53.02320       28.34004
C         56.56914       52.63804       28.16314
C         57.50737       53.57759       28.85245
O         58.47544       53.08010       29.63490
O         57.46942       54.77632       28.63633
H         55.19315       52.43881       25.80474
H         54.29537       51.01734       28.12680
H         54.84917       53.05832       29.42268
H         54.91704       54.03618       27.91318
H         56.84632       52.66124       27.09478
H         56.74202       51.60864       28.54591
N         51.88725       52.87322       26.89050
C         50.48365       53.19478       27.04985
H         50.11536       52.99846       28.07784
H         50.31716       54.26415       26.80468
H         49.88988       52.57320       26.34511
H         52.28201       53.01098       25.95634
Ca        60.49768       55.42216       29.04296
O         59.96826       53.23139       26.77751
H         59.21213       52.78365       26.32288
H         60.13162       52.67609       27.57992
O         60.40346       56.96719       26.61671
H         60.61171       57.52204       25.82392
H         59.44325       57.13263       26.79543

Ca 1.0



