%chk=holoCaM-CaMKII.loop4.water1.frame361.chk
%nprocshared=20
%mem=10GB
%nosave
#b3lyp/svp scf=(tight,noincore,xqc) Test 
#IOP(5/87=12) Density=Current Pop=(MK,readradii) iop(6/33=2) iop(6/42=6)

holoCaM-CaMKII.loop4.water1.frame361 

   -3  1 
C         51.88334       62.81106       19.38421
C         51.89503       62.55347       17.91272
O         50.92769       62.00558       17.40311
H         51.95509       63.90302       19.56474
H         50.94177       62.43174       19.83725
H         52.74359       62.29501       19.85788
N         52.97311       62.91884       17.16117
C         53.03582       62.69712       15.72779
C         54.15173       61.71510       15.41982
O         55.32034       62.02409       15.60598
C         53.21585       64.03661       14.99441
C         53.09520       63.91889       13.50270
O         53.21319       65.02138       12.74754
O         52.86379       62.84794       12.96698
H         53.78114       63.36101       17.62555
H         52.06978       62.26807       15.37917
H         54.20201       64.47846       15.25435
H         52.42392       64.73869       15.32764
N         53.82550       60.47539       14.97611
C         54.77994       59.42908       14.63501
C         55.52895       59.84145       13.37168
O         56.74957       59.78424       13.33779
C         54.02037       58.06734       14.43358
C         53.23057       57.68241       15.72575
C         55.00880       56.94153       14.06388
C         52.33419       56.45077       15.57454
H         52.82620       60.26514       14.88743
H         55.49141       59.27214       15.47674
H         53.29367       58.18456       13.59840
H         52.54333       58.49816       16.02269
H         53.93654       57.52363       16.56926
H         55.74243       56.78522       14.88402
H         54.48079       55.98567       13.87372
H         55.55974       57.18336       13.13247
H         51.60415       56.60501       14.75150
H         52.92154       55.53157       15.38486
H         51.76712       56.29559       16.51779
N         54.82057       60.24498       12.28188
C         55.38920       60.52455       10.96478
C         56.36178       61.70166       10.96304
O         57.49679       61.52957       10.54171
C         54.24807       60.80845        9.95428
C         53.19960       59.71705        9.96277
O         53.50498       58.57127        9.67480
O         51.93499       59.99399       10.35787
H         53.79750       60.30068       12.39015
H         55.91907       59.61070       10.61441
H         54.66156       60.92324        8.92911
H         53.76555       61.76405       10.22739
N         55.95600       62.94028       11.36451
C         56.75256       64.15603       11.24651
C         56.06600       65.19916       10.36738
O         56.59433       66.29508       10.24539
H         55.00976       63.04067       11.74847
H         57.75957       63.94966       10.82360
H         56.88840       64.58442       12.26284
N         54.89406       64.92879        9.71566
C         54.17063       65.86789        8.85356
C         53.51166       67.04228        9.58329
O         52.81799       67.80648        8.92502
C         53.15328       65.09319        7.97752
C         52.11730       64.25987        8.68403
O         51.41881       63.51624        8.01390
O         51.98593       64.22865       10.02258
H         54.51863       63.97584        9.77657
H         54.88732       66.30080        8.12096
H         53.75141       64.37916        7.36779
H         52.64382       65.78287        7.27175
N         53.72182       67.30446       10.90586
C         53.18056       68.47038       11.58414
C         51.70952       68.37842       11.93314
O         51.22493       69.32243       12.53857
H         54.36803       66.72340       11.44853
H         53.38385       69.38286       10.97996
H         53.71394       68.58976       12.55170
N         50.93490       67.29821       11.61316
C         49.52527       67.19763       11.99520
C         49.25591       65.91702       12.76940
O         50.13351       65.06860       12.83354
C         48.64749       67.38128       10.74367
C         48.86945       66.38692        9.59170
C         48.25431       65.04400        9.84791
N         47.01332       64.78053        9.38723
O         48.87300       64.18226       10.45238
H         51.34372       66.52515       11.07492
H         49.26359       68.03089       12.68206
H         48.90241       68.38678       10.34207
H         47.56957       67.40163       11.01670
H         49.92969       66.28996        9.27692
H         48.34517       66.81677        8.71181
H         46.46329       65.49652        8.88932
H         46.60146       63.85788        9.53861
N         48.07856       65.74283       13.45111
C         47.81277       64.55238       14.25831
C         46.44166       63.97049       13.91617
O         45.43782       64.54896       14.30739
C         47.92891       64.89329       15.77870
C         47.71337       63.65465       16.66496
C         49.30704       65.49168       16.11292
H         47.38669       66.50644       13.45643
H         48.58153       63.78617       14.04669
H         47.15805       65.65106       16.04190
H         48.47896       62.88186       16.44485
H         47.79354       63.93111       17.73877
H         46.70603       63.22262       16.50959
H         49.48393       66.42906       15.54605
H         49.36854       65.74354       17.19371
H         50.11278       64.76656       15.87347
N         46.32700       62.81299       13.19701
C         45.04911       62.12828       12.97364
C         44.52700       61.50735       14.25268
O         45.20233       61.51193       15.26717
C         45.20891       60.98291       11.93072
C         45.13471       61.43995       10.49894
N         45.35029       60.55671        9.49747
O         44.81819       62.58724       10.23110
H         47.18172       62.40104       12.80011
H         44.28087       62.85431       12.62689
H         44.38553       60.24285       12.00868
H         46.15522       60.43485       12.13304
H         45.59659       59.57763        9.70472
H         45.27189       60.85204        8.51298
N         43.29178       60.93528       14.24349
C         42.69775       60.22643       15.36786
C         43.47724       58.96058       15.68173
O         43.74458       58.71491       16.84918
C         41.22860       59.89405       15.03407
C         40.48051       59.25307       16.17939
C         40.36347       59.90958       17.41841
C         39.86723       58.00144       16.00855
C         39.65035       59.32097       18.46604
C         39.14750       57.41855       17.05554
C         39.03689       58.07730       18.28859
O         38.34127       57.52913       19.30492
H         42.73835       61.01235       13.37532
H         42.69246       60.89751       16.25410
H         41.19402       59.24625       14.12995
H         40.70483       60.84373       14.78816
H         40.81884       60.87839       17.57762
H         39.93564       57.48025       15.06189
H         39.56906       59.83653       19.41490
H         38.67288       56.45738       16.90516
H         37.89168       56.67643       19.21917
N         43.90618       58.13035       14.68178
C         44.68307       56.91230       14.92087
C         45.86945       57.19521       15.82439
O         46.06594       56.48424       16.80010
C         45.12571       56.23992       13.58755
C         46.16153       57.02731       12.75944
C         46.50203       56.32119       11.47831
O         47.76688       55.91918       11.24460
O         45.64204       56.12539       10.63477
H         43.69942       58.39615       13.70714
H         44.02656       56.17620       15.43609
H         44.21782       56.06287       12.97043
H         45.57217       55.24847       13.82472
H         47.09969       57.12392       13.34257
H         45.77756       58.03756       12.51321
N         46.66728       58.26796       15.57827
C         47.80899       58.63483       16.40337
C         47.33857       58.97698       17.80882
O         47.80073       58.35532       18.75501
C         48.58572       59.80292       15.74933
C         49.10642       59.39815       14.35071
C         49.90013       60.47361       13.67851
O         51.13870       60.21205       13.23127
O         49.40638       61.56458       13.46401
H         46.42774       58.86305       14.77256
H         48.51457       57.77493       16.45709
H         49.45074       60.06339       16.39529
H         47.92669       60.69333       15.65758
H         48.26166       59.16956       13.67399
H         49.73784       58.48796       14.43935
N         46.37977       59.92452       18.00810
C         45.82730       60.26423       19.30410
H         44.73710       60.04665       19.30436
H         46.29668       59.69139       20.13028
H         45.97035       61.34825       19.49396
H         45.99036       60.41393       17.19684
Ca        51.37661       62.16394       10.67693
O         48.67142       60.96541       10.02839
H         48.05212       61.52745        9.49882
H         48.75859       60.12981        9.50463

Ca 1.0



