%chk=holoCaM-CaMKII.loop4.water2.frame152.chk
%nprocshared=20
%mem=10GB
%nosave
#b3lyp/svp scf=(tight,noincore,xqc) Test 
#IOP(5/87=12) Density=Current Pop=(MK,readradii) iop(6/33=2) iop(6/42=6)

holoCaM-CaMKII.loop4.water2.frame152 

   -3  1 
C         -1.63984       82.71991       66.11506
C         -1.33764       81.73929       67.20791
O         -1.04124       80.58998       66.92119
H         -2.67265       83.10837       66.24241
H         -0.92424       83.56730       66.16733
H         -1.55835       82.23952       65.11726
N         -1.38865       82.14193       68.50461
C         -1.11965       81.25859       69.63255
C         -2.15823       80.14583       69.71314
O         -3.33385       80.44916       69.86517
C         -1.14217       82.08660       70.93194
C         -0.94748       81.22821       72.13735
O         -1.92884       81.14645       73.05558
O          0.07787       80.58312       72.27550
H         -1.61677       83.13210       68.68963
H         -0.10007       80.82530       69.51663
H         -2.12351       82.60227       71.02363
H         -0.34558       82.86187       70.90127
N         -1.78438       78.83253       69.63639
C         -2.72996       77.71988       69.74281
C         -2.40726       76.75589       70.88961
O         -3.17454       75.81636       71.05130
C         -2.86916       76.97027       68.38358
C         -1.55108       76.28680       67.93818
C         -3.41607       77.93488       67.31507
C         -1.70684       75.44959       66.66585
H         -0.79193       78.61646       69.47651
H         -3.74448       78.11002       69.97966
H         -3.63807       76.17677       68.52115
H         -1.21541       75.59855       68.74350
H         -0.75585       77.04208       67.76830
H         -4.35705       78.40717       67.66996
H         -2.68264       78.73192       67.09324
H         -3.65951       77.40418       66.37389
H         -0.74859       74.93730       66.43956
H         -2.49752       74.68107       66.80238
H         -1.95835       76.08490       65.79254
N         -1.35315       76.92723       71.75112
C         -1.11971       76.03510       72.89888
C         -1.45630       76.69842       74.22656
O         -1.65879       75.97212       75.19015
C          0.29344       75.41025       72.88927
C          1.43066       76.39661       72.95067
O          2.57400       75.99358       72.81140
O          1.20637       77.72010       73.04992
H         -0.73572       77.73781       71.62017
H         -1.82706       75.17991       72.83490
H          0.39914       74.84104       71.93935
H          0.39762       74.68975       73.72993
N         -1.57511       78.05129       74.35754
C         -2.11755       78.69297       75.54495
C         -1.07415       79.42494       76.35491
O         -0.97105       79.15289       77.54286
H         -1.32949       78.66147       73.56886
H         -2.61588       77.95171       76.20701
H         -2.90733       79.40188       75.21618
N         -0.26662       80.36889       75.79704
C          0.76738       81.06993       76.55509
C          0.99628       82.51364       76.09856
O          1.88360       83.15167       76.64868
C          2.06248       80.22848       76.57403
C          2.69527       79.96710       75.23693
O          2.22158       80.41748       74.20911
O          3.80357       79.20646       75.17689
H         -0.30967       80.49418       74.78173
H          0.45133       81.15024       77.61920
H          1.82589       79.24301       77.02995
H          2.81240       80.72881       77.22347
N          0.21827       83.12440       75.15475
C          0.39023       84.51720       74.76898
C          1.62497       84.79343       73.93723
O          1.81881       85.95244       73.59414
H         -0.58029       82.63049       74.73982
H          0.38949       85.15241       75.68098
H         -0.47718       84.82404       74.14419
N          2.47727       83.80821       73.52973
C          3.61377       84.05250       72.64938
C          3.42102       83.30603       71.34243
O          2.51352       82.48904       71.23258
C          4.92716       83.61373       73.32877
C          5.19145       84.37724       74.63497
C          6.45844       83.89608       75.29753
N          7.48489       84.74587       75.53627
O          6.55424       82.72494       75.63451
H          2.30189       82.83648       73.81094
H          3.68521       85.13411       72.39870
H          5.78254       83.78453       72.63792
H          4.86674       82.52706       73.55082
H          4.35172       84.21680       75.34380
H          5.25949       85.46448       74.41330
H          7.42553       85.73895       75.26874
H          8.34408       84.40997       75.99691
N          4.22181       83.58714       70.28026
C          4.09996       82.94637       68.97778
C          5.44659       82.36576       68.60255
O          6.43058       83.09496       68.58264
C          3.60224       83.96855       67.91879
C          3.52504       83.33597       66.51587
C          2.20657       84.49534       68.29794
H          4.93492       84.32730       70.38631
H          3.34486       82.12737       69.00355
H          4.30634       84.82876       67.87420
H          2.83603       82.46335       66.51121
H          3.15947       84.08112       65.77734
H          4.52694       83.00101       66.17731
H          2.22828       85.00249       69.28464
H          1.85428       85.23287       67.54584
H          1.47196       83.66077       68.34377
N          5.54705       81.06081       68.23737
C          6.78799       80.42885       67.81016
C          6.73453       80.25125       66.29741
O          5.71901       80.57225       65.69543
C          6.93180       79.11405       68.63349
C          8.20024       78.30548       68.45833
N          9.07710       78.16381       69.47979
O          8.41945       77.72507       67.40918
H          4.68593       80.49418       68.19633
H          7.65472       81.09040       68.02768
H          6.06622       78.44516       68.42851
H          6.86777       79.41035       69.70312
H          8.91370       78.61645       70.39015
H          9.92769       77.59323       69.35897
N          7.80815       79.79342       65.60226
C          7.78430       79.50865       64.17043
C          6.72712       78.45939       63.84559
O          5.96542       78.66881       62.91421
C          9.16292       78.99312       63.71776
C          9.13790       78.57871       62.26625
C          8.97193       79.52417       61.23936
C          9.24226       77.21807       61.93900
C          8.91453       79.10738       59.90443
C          9.17356       76.80419       60.60943
C          9.01032       77.74729       59.58591
O          8.93952       77.35647       58.29795
H          8.68498       79.63238       66.11586
H          7.55797       80.44070       63.60313
H          9.41974       78.11691       64.35225
H          9.94659       79.76486       63.88093
H          8.88568       80.57905       61.47035
H          9.35432       76.47341       62.71728
H          8.78807       79.84036       59.11736
H          9.24117       75.74889       60.37928
H          8.99211       76.42404       58.04273
N          6.64099       77.29269       64.54872
C          5.64418       76.26361       64.25121
C          4.19510       76.73146       64.43536
O          3.30499       75.97401       64.07396
C          5.91081       74.97415       65.06489
C          5.72082       75.13178       66.58429
C          5.98454       73.83234       67.29039
O          5.30500       72.84833       67.04322
O          6.96545       73.74895       68.20930
H          7.32923       77.12421       65.29199
H          5.77345       75.99283       63.17952
H          6.95050       74.63460       64.85951
H          5.22019       74.18158       64.70070
H          4.68063       75.44316       66.80877
H          6.41239       75.90299       66.98050
N          3.87782       77.95437       64.96038
C          2.51230       78.46154       65.08749
C          2.25713       79.64375       64.15716
O          1.10460       80.02749       64.01550
C          2.23289       78.87893       66.54549
C          2.50280       77.72422       67.50965
C          2.23409       78.08934       68.93298
O          1.42126       77.44132       69.57211
O          2.93134       79.06214       69.55326
H          4.62971       78.55937       65.29093
H          1.79328       77.66660       64.79109
H          1.17463       79.20357       66.64094
H          2.88697       79.73777       66.81337
H          3.56697       77.42063       67.44772
H          1.86371       76.85999       67.22427
N          3.26972       80.26815       63.48874
C          3.08523       81.34380       62.54012
H          3.61364       82.24946       62.90462
H          3.53284       81.04188       61.56828
H          2.01639       81.58531       62.37460
H          4.23684       79.99176       63.65269
Ca         2.51685       78.99397       71.75302
O          5.06012       77.38503       71.03471
H          4.89724       76.99830       71.93120
H          4.52700       76.82155       70.41950
O          5.32384       80.24928       72.16750
H          6.24214       80.60939       72.24700
H          5.02966       80.12188       73.10332

Ca 1.0



