%chk=holoCaM-CaMKII.loop2.water2.frame94.chk
%nprocshared=20
%mem=10GB
%nosave
#b3lyp/svp scf=(tight,noincore,xqc) Test 
#IOP(5/87=12) Density=Current Pop=(MK,readradii) iop(6/33=2) iop(6/42=6)

holoCaM-CaMKII.loop2.water2.frame94 

   -2  1 
C         11.26149       55.24220       58.19775
C          9.99983       55.95340       57.79083
O         10.00396       56.63509       56.77794
H         12.07458       55.97485       58.37611
H         11.11271       54.64617       59.12388
H         11.56959       54.54505       57.38905
N          8.86397       55.81084       58.52619
C          7.57411       56.37603       58.14139
C          7.58757       57.90135       58.16132
O          7.88154       58.47173       59.20294
C          6.48606       55.86343       59.11613
C          5.08049       56.17153       58.68155
O          4.04952       55.80704       59.46539
O          4.85616       56.70915       57.61210
H          8.90825       55.21627       59.36882
H          7.32601       55.99478       57.12575
H          6.66352       56.29617       60.12452
H          6.55332       54.75921       59.20145
N          7.22613       58.62160       57.05677
C          7.13345       60.08158       57.03751
C          5.71934       60.58784       56.73525
O          5.52832       61.79566       56.77234
C          8.11033       60.63169       55.99346
H          6.99250       58.11169       56.19469
H          7.41866       60.49704       58.02807
H          7.84380       60.26012       54.97981
H          8.08754       61.74283       55.98229
H          9.14514       60.30722       56.23183
N          4.69215       59.75044       56.40141
C          3.34797       60.20429       56.04823
C          2.27629       59.54949       56.91776
O          1.52387       60.27960       57.54818
C          3.10816       60.02629       54.52591
C          3.60241       58.73486       53.94456
O          4.53572       58.74991       53.15624
O          3.06505       57.55827       54.28196
H          4.87111       58.74440       56.32779
H          3.24118       61.29973       56.21413
H          3.69532       60.82443       54.02079
H          2.03956       60.18711       54.26836
N          2.11578       58.19801       56.97782
C          1.05227       57.52963       57.70602
C          0.10444       56.84845       56.73902
O         -1.08473       57.12791       56.79965
H          2.77110       57.59236       56.48441
H          0.46978       58.24377       58.32968
H          1.50269       56.78125       58.39206
N          0.55780       55.95481       55.80861
C         -0.31700       55.25577       54.86519
C         -0.22100       53.73060       55.01538
O         -0.84320       53.02875       54.23016
C         -0.03982       55.72326       53.41183
C          1.27087       55.28815       52.81785
N          1.58105       55.60810       51.54183
O          2.04987       54.62355       53.47177
H          1.56850       55.76770       55.75769
H         -1.37720       55.53253       55.05256
H         -0.10612       56.83312       53.36969
H         -0.83687       55.31073       52.75687
H          0.93407       56.16144       50.96235
H          2.46697       55.28632       51.12800
N          0.49206       53.14733       56.02802
C          0.52423       51.71012       56.27254
C          1.48623       50.91142       55.40438
O          1.53919       49.70462       55.59297
H          0.93116       53.74248       56.74223
H         -0.50727       51.30199       56.19538
H          0.86133       51.54731       57.31866
N          2.28506       51.48586       54.46101
C          3.23060       50.74380       53.62267
C          4.64558       51.30205       53.75173
O          4.85551       52.28489       54.44917
C          2.77310       50.81913       52.13858
C          1.44125       50.10187       51.92355
O          2.64701       52.15517       51.72024
H          2.21654       52.49402       54.31431
H          3.27282       49.67296       53.91932
H          3.49334       50.28765       51.47640
H          3.55604       52.47373       51.47961
H          1.53647       49.03285       52.21266
H          0.63323       50.57157       52.52134
H          1.16280       50.14737       50.84882
N          5.65652       50.74193       53.02379
C          6.98914       51.31663       52.88841
C          7.04071       51.94473       51.51113
O          6.71476       51.28407       50.53337
C          8.11077       50.24665       53.04770
C          8.04588       49.57460       54.44055
C          9.49645       50.89676       52.81912
C          9.06156       48.43845       54.61210
H          5.44097       49.92892       52.42768
H          7.16244       52.10910       53.65072
H          7.96024       49.46387       52.27107
H          7.03660       49.13302       54.58004
H          8.20869       50.33197       55.23861
H         10.31206       50.14968       52.84988
H          9.55898       51.35726       51.81402
H          9.69418       51.68152       53.58105
H          8.92440       47.96318       55.60523
H          8.91374       47.66800       53.82547
H         10.10617       48.80773       54.56919
N          7.46820       53.22485       51.36519
C          7.49463       53.92632       50.08852
C          8.90379       53.95023       49.57134
O          9.78323       53.40280       50.21664
C          6.98053       55.35958       50.28065
C          5.62332       55.38995       50.89365
O          4.73979       56.07832       50.40905
O          5.43231       54.76322       52.06691
H          7.83079       53.71912       52.19360
H          6.86702       53.40164       49.33474
H          6.97707       55.92980       49.32751
H          7.65941       55.88234       50.98930
N          9.19839       54.52003       48.37577
C         10.54105       54.46376       47.83222
C         11.55786       55.23942       48.67644
O         12.55741       54.63198       49.03472
C         10.57409       54.89008       46.35433
C         11.89536       54.48803       45.74415
C         12.79329       55.45360       45.26828
C         12.24503       53.12418       45.66481
C         14.02592       55.06096       44.73520
C         13.47521       52.73819       45.13507
C         14.36729       53.70586       44.67204
H          8.43856       54.93438       47.81341
H         10.82344       53.38890       47.84502
H         10.38605       55.97783       46.26405
H          9.77197       54.36465       45.79076
H         12.54524       56.50601       45.32078
H         11.56859       52.35462       46.01706
H         14.71984       55.80785       44.37539
H         13.73489       51.68804       45.08790
H         15.32240       53.40356       44.26452
N         11.40103       56.55115       49.06506
C         12.39839       57.28806       49.83943
C         12.47760       56.85218       51.30008
O         13.23786       57.45945       52.04173
C         11.94054       58.74358       49.70236
C         10.43859       58.59504       49.69522
C         10.25272       57.39097       48.77215
H         13.41258       57.20496       49.38983
H         12.35949       59.44841       50.45297
H         12.22953       59.10731       48.68942
H         10.13240       58.30736       50.72766
H          9.86601       59.49859       49.39754
H          9.28073       56.92691       49.02666
H         10.28607       57.69073       47.70500
N         11.76828       55.79113       51.77467
C         11.85730       55.29239       53.13590
C         12.72718       54.05051       53.11286
O         13.74111       54.02601       53.79581
C         10.44134       55.00898       53.68041
C          9.54432       56.26099       53.60531
C          8.13689       56.02120       54.07801
O          7.23791       57.01795       53.98899
O          7.78807       54.93743       54.51743
H         11.16312       55.26259       51.14103
H         12.34142       56.04072       53.80371
H         10.51369       54.65302       54.73155
H          9.97087       54.20699       53.07330
H          9.47592       56.59751       52.55022
H          9.99081       57.08234       54.20417
N         12.42643       53.00993       52.28513
C         13.26669       51.84577       52.10453
H         14.17765       51.87782       52.73613
H         12.68943       50.93044       52.34481
H         13.58351       51.79579       51.03973
H         11.57813       53.05379       51.71306
Ca         4.32927       55.89073       53.58497
O          3.62028       54.05924       56.54733
H          3.11635       54.63911       57.17073
H          3.62374       53.17308       56.98825
O          6.62178       53.24866       56.73037
H          7.21964       52.83172       56.06126
H          7.05888       53.06053       57.59759

Ca 1.0



