%chk=holoCaM-CaMKII.loop4.water1.frame492.chk
%nprocshared=20
%mem=10GB
%nosave
#b3lyp/svp scf=(tight,noincore,xqc) Test 
#IOP(5/87=12) Density=Current Pop=(MK,readradii) iop(6/33=2) iop(6/42=6)

holoCaM-CaMKII.loop4.water1.frame492 

   -3  1 
C        102.54216       76.69872       84.67796
C        102.78889       76.27875       83.25948
O        101.85924       75.88430       82.57495
H        101.47398       76.57145       84.95138
H        103.16740       76.08727       85.36230
H        102.81747       77.76859       84.79801
N        104.03941       76.37975       82.74274
C        104.38217       76.04482       81.36479
C        104.34728       74.52658       81.14330
O        105.00669       73.81580       81.88911
C        105.79270       76.60565       81.07894
C        106.17171       76.64106       79.63166
O        107.38871       77.10192       79.29967
O        105.38695       76.31666       78.75520
H        104.77217       76.77351       83.35568
H        103.67820       76.58028       80.68785
H        106.54946       76.02960       81.65468
H        105.83601       77.66505       81.41557
N        103.63823       73.96646       80.11414
C        103.59653       72.52024       79.82857
C        104.47915       72.15698       78.62668
O        104.77432       70.97913       78.47075
C        102.10277       72.05802       79.59702
C        101.29346       71.86787       80.90369
C        101.96264       70.74299       78.79724
C        101.18266       73.09742       81.78356
H        103.14474       74.60247       79.47062
H        104.04413       71.94751       80.67082
H        101.60365       72.82560       78.96593
H        101.73642       71.04239       81.50238
H        100.25396       71.57710       80.63091
H        100.89029       70.49743       78.63898
H        102.39258       70.84667       77.77817
H        102.45031       69.89801       79.32658
H        100.52357       72.87232       82.64824
H        102.17461       73.37099       82.18524
H        100.74199       73.93371       81.20754
N        104.89970       73.07891       77.71942
C        105.63406       72.73537       76.49686
C        106.98307       73.44857       76.37396
O        107.67636       73.21860       75.39273
C        104.73024       72.96792       75.26220
C        104.19802       74.36754       75.08639
O        104.44516       75.32485       75.99888
O        103.52669       74.63103       74.10322
H        104.62817       74.05206       77.87131
H        105.87684       71.64971       76.48350
H        103.85564       72.28478       75.33315
H        105.30228       72.68532       74.35133
N        107.45275       74.27046       77.35060
C        108.77777       74.86831       77.34956
C        109.03612       75.88727       76.25658
O        110.05948       75.77106       75.59707
H        106.88621       74.42267       78.19235
H        109.54796       74.06617       77.31726
H        108.91629       75.39698       78.31435
N        108.20423       76.95314       76.05688
C        108.55318       78.09249       75.19363
C        108.54417       79.42622       75.94458
O        109.11294       80.37093       75.41558
C        107.70241       78.15273       73.90921
C        106.24550       77.96284       74.17410
O        105.68422       76.98930       73.69579
O        105.56205       78.75976       75.01280
H        107.30943       76.96527       76.56680
H        109.60545       77.98153       74.84998
H        108.02715       77.31786       73.24899
H        107.88475       79.10178       73.36129
N        107.96527       79.58823       77.17155
C        108.10864       80.79446       77.97366
C        106.80641       81.50359       78.26940
O        106.85014       82.43326       79.06488
H        107.43259       78.82507       77.59738
H        108.79720       81.52931       77.50563
H        108.56185       80.48653       78.94088
N        105.62535       81.17291       77.66864
C        104.36831       81.86036       77.96199
C        103.31132       80.88844       78.43836
O        103.55159       79.68565       78.42159
C        103.92947       82.72041       76.75184
C        103.74138       82.02659       75.38639
C        102.51978       81.14707       75.27833
N        101.50810       81.48633       74.44750
O        102.44476       80.10967       75.91456
H        105.61264       80.42281       76.96374
H        104.51493       82.57427       78.80260
H        104.74232       83.46609       76.60550
H        103.00908       83.29259       76.99923
H        104.64829       81.45657       75.09741
H        103.63238       82.84650       74.64371
H        101.53868       82.35131       73.88912
H        100.68571       80.87808       74.36227
N        102.12487       81.34718       78.93432
C        101.08134       80.46160       79.43650
C         99.75075       80.82701       78.78902
O         99.22811       81.89788       79.07179
C        101.00573       80.56435       80.99023
C         99.97387       79.59091       81.57876
C        102.37249       80.27585       81.63663
H        101.97799       82.36670       79.01036
H        101.32927       79.40612       79.18600
H        100.71237       81.60081       81.27043
H         99.92418       79.70413       82.68277
H         98.96347       79.79559       81.17978
H        100.25318       78.54191       81.34778
H        103.13467       81.00661       81.29436
H        102.30202       80.36833       82.74164
H        102.71946       79.25022       81.38539
N         99.14004       79.98336       77.90868
C         97.80918       80.23549       77.35057
C         96.74615       80.08382       78.42494
O         97.06659       79.74079       79.55303
C         97.49337       79.20889       76.23448
C         98.33604       79.41983       75.00988
N         99.16599       78.45255       74.56014
O         98.24264       80.47288       74.39664
H         99.63626       79.12466       77.63206
H         97.76118       81.26184       76.92341
H         96.44260       79.30529       75.89108
H         97.62113       78.18078       76.63931
H         99.24856       77.55337       75.05594
H         99.72429       78.60481       73.70736
N         95.43123       80.28032       78.12309
C         94.36288       79.92807       79.04745
C         94.35544       78.41854       79.24596
O         94.25578       77.96632       80.37575
C         92.99120       80.39584       78.51895
C         91.91082       80.17791       79.55778
C         91.98080       80.83934       80.79899
C         90.83141       79.31579       79.30520
C         90.99892       80.63373       81.76999
C         89.84722       79.11287       80.27994
C         89.93031       79.77034       81.51686
O         88.99263       79.58181       82.46714
H         95.17943       80.63955       77.18956
H         94.54384       80.45020       80.01173
H         92.75654       79.86057       77.57221
H         93.03072       81.48354       78.29295
H         92.79665       81.51554       81.02043
H         90.75323       78.79617       78.35873
H         91.07104       81.14661       82.72127
H         89.02220       78.44299       80.07431
H         88.23691       78.99202       82.33594
N         94.47878       77.57884       78.17371
C         94.53109       76.12079       78.29377
C         95.74041       75.59917       79.08504
O         95.76611       74.40518       79.34953
C         94.46748       75.44560       76.89859
C         95.68455       75.73380       76.00006
C         95.53930       75.05734       74.66682
O         95.44169       73.71596       74.59466
O         95.52041       75.71891       73.64082
H         94.51655       78.00317       77.23568
H         93.61308       75.80985       78.84050
H         93.54546       75.79248       76.38150
H         94.38061       74.34511       77.03824
H         96.61080       75.36013       76.48099
H         95.78749       76.82439       75.83488
N         96.76099       76.40991       79.50497
C         97.88743       75.94674       80.31875
C         97.88875       76.57619       81.71194
O         98.71584       76.17498       82.51936
C         99.22998       76.26813       79.62593
C         99.38136       75.59311       78.26017
C        100.74058       75.86842       77.67642
O        101.48877       74.94493       77.40145
O        101.14126       77.13237       77.44676
H         96.74590       77.39932       79.24786
H         97.81893       74.84804       80.47646
H        100.06102       75.92448       80.27763
H         99.32381       77.36879       79.50031
H         98.60965       75.98146       77.56583
H         99.24527       74.49515       78.37409
N         97.00967       77.55457       82.07430
C         96.96360       78.15819       83.39003
H         95.95214       78.00684       83.82381
H         97.71252       77.72576       84.08448
H         97.14994       79.24900       83.29933
H         96.33678       77.91518       81.39750
Ca       103.91300       77.49601       75.80836
O        101.76100       76.88793       73.84272
H        101.49931       76.37876       74.65088
H        101.18560       76.52378       73.12455

Ca 1.0



