%chk=holoCaM-CaMKII.loop3.water2.frame309.chk
%nprocshared=20
%mem=10GB
%nosave
#b3lyp/svp scf=(tight,noincore,xqc) Test 
#IOP(5/87=12) Density=Current Pop=(MK,readradii) iop(6/33=2) iop(6/42=6)

holoCaM-CaMKII.loop3.water2.frame309 

   0  1 
C         38.87509        9.27837       56.42758
C         37.49207        9.03876       56.95334
O         37.20999        9.43471       58.07553
H         39.61082        8.75901       57.07696
H         38.98589        8.89090       55.39258
H         39.08892       10.36661       56.42432
N         36.58333        8.35765       56.20254
C         35.23930        8.04691       56.65695
C         35.17719        6.55533       56.92170
O         35.40905        5.76632       56.01610
C         34.22575        8.52306       55.60287
C         32.79577        8.28078       55.98145
O         32.46577        7.67267       57.13421
O         31.91577        8.64265       55.22416
H         36.87124        7.99661       55.27954
H         35.01505        8.58983       57.60277
H         34.42445        8.01534       54.63415
H         34.35502        9.61849       55.45890
N         34.92817        6.10948       58.18396
C         34.99890        4.71011       58.58090
C         33.99710        3.85327       57.83732
O         34.40657        2.87409       57.22951
C         34.77649        4.58779       60.10211
C         34.97989        3.15496       60.61047
C         34.81551        3.07756       62.13167
C         34.99757        1.63371       62.61715
N         34.86836        1.54649       64.07050
H         34.74093        6.81023       58.91568
H         36.02881        4.34294       58.36965
H         33.74766        4.92249       60.35233
H         35.50884        5.24854       60.61854
H         36.00331        2.81393       60.33943
H         34.23712        2.48195       60.13033
H         33.80133        3.43503       62.41622
H         35.57345        3.73113       62.61777
H         36.00312        1.26265       62.31736
H         34.22801        0.98610       62.14036
H         34.97547        0.54805       64.36214
H         35.61554        2.11550       64.53085
H         33.92670        1.88843       64.37060
N         32.66731        4.15190       57.85510
C         31.65535        3.29613       57.24287
C         31.12279        3.87317       55.93443
O         30.21930        3.27779       55.36363
C         30.56608        2.93687       58.28565
C         29.69752        4.07055       58.75025
O         29.80585        5.18179       58.27012
O         28.76542        3.84769       59.69589
H         32.36374        5.02150       58.31935
H         32.10626        2.32103       56.95704
H         31.07358        2.50379       59.17599
H         29.89400        2.15952       57.86483
N         31.70790        4.95749       55.33674
C         31.35675        5.41271       53.99767
C         29.98996        6.05437       53.87012
O         29.59886        6.33868       52.74693
H         32.51386        5.41292       55.78422
H         31.41554        4.53836       53.31233
H         32.10594        6.15669       53.65186
N         29.20060        6.31154       54.95006
C         27.83166        6.81787       54.83265
C         27.71929        8.23380       54.25694
O         26.60124        8.65227       53.99135
C         27.12669        6.72215       56.21021
C         27.55559        7.79315       57.23811
N         26.70958        8.97032       57.13601
O         28.88034        8.17878       57.02640
H         29.55573        6.06359       55.88220
H         27.30414        6.11565       54.14953
H         27.34341        5.71584       56.62902
H         26.02326        6.76874       56.08289
H         25.72969        8.69993       57.38269
H         27.03576        9.62505       57.87516
N         28.81055        9.03585       54.06590
C         28.73972       10.38084       53.50977
C         29.23855       11.47324       54.44516
O         29.23051       12.61652       54.01150
H         29.74029        8.68254       54.30718
H         27.70082       10.64171       53.21915
H         29.36029       10.40361       52.58714
N         29.70604       11.22798       55.70878
C         30.21261       12.29234       56.58662
C         31.06089       11.74918       57.73898
O         31.19358       10.54251       57.88443
C         29.06818       13.24412       57.03534
C         27.94935       12.60084       57.82897
C         28.16009       12.13044       59.13733
C         26.65903       12.50778       57.27269
C         27.10319       11.57810       59.87121
C         25.60599       11.95053       58.00514
C         25.82472       11.48383       59.30915
O         24.82045       10.93765       60.02451
H         29.74852       10.25580       56.03099
H         30.93707       12.89414       55.99324
H         28.63670       13.69916       56.12049
H         29.47332       14.09415       57.62327
H         29.13399       12.20411       59.60073
H         26.46416       12.86425       56.26872
H         27.27795       11.22301       60.87898
H         24.62239       11.87960       57.55716
H         23.92707       10.83816       59.66491
N         31.74375       12.61298       58.54956
C         32.73890       12.18869       59.53462
C         32.32070       12.62755       60.92910
O         32.02953       13.80050       61.11939
C         34.13133       12.80358       59.18464
C         34.54936       12.48366       57.72457
C         35.20359       12.28488       60.17151
C         35.78691       13.26759       57.27333
H         31.61456       13.62721       58.41397
H         32.85920       11.08820       59.51891
H         34.04838       13.90945       59.28041
H         33.73657       12.78041       57.02937
H         34.72408       11.39194       57.60410
H         35.30519       11.18074       60.08456
H         36.19350       12.74493       59.99142
H         34.93771       12.53249       61.21683
H         36.68534       13.01598       57.86965
H         36.01138       13.03005       56.21280
H         35.59185       14.35944       57.35301
N         32.36815       11.74766       61.97300
C         32.09461       12.12476       63.35906
C         33.37534       12.09683       64.17997
O         34.42374       11.77312       63.64813
C         31.04867       11.17140       63.95982
O         31.56666        9.86917       64.02497
H         32.68056       10.78218       61.78981
H         31.69442       13.16030       63.40844
H         30.13209       11.18642       63.33211
H         30.77945       11.51472       64.98304
H         30.94330        9.34437       64.59097
N         33.35752       12.43349       65.49975
C         34.53577       12.39236       66.36336
C         35.11005       10.98929       66.44440
O         36.30705       10.82583       66.25492
C         34.16876       12.87228       67.77136
H         32.45967       12.72801       65.91257
H         35.31231       13.08900       65.97391
H         33.78579       13.91420       67.72423
H         33.38732       12.22364       68.22149
H         35.06741       12.86170       68.42497
N         34.29586        9.92436       66.69293
C         34.75971        8.54083       66.77965
C         35.56409        8.14361       65.55929
O         36.67069        7.64399       65.70671
C         33.55582        7.59693       66.91430
H         33.28511       10.10830       66.79398
H         35.39654        8.41870       67.68334
H         32.97212        7.84655       67.82495
H         32.88499        7.68434       66.03110
H         33.89868        6.54299       66.99329
N         35.06413        8.36273       64.31633
C         35.75620        7.99759       63.08507
C         37.12244        8.65749       63.01424
O         38.10386        7.95670       62.80995
C         34.89846        8.36983       61.85926
C         33.56151        7.59739       61.86650
C         32.70765        7.86561       60.66658
O         33.06168        8.64299       59.79633
O         31.52285        7.23763       60.55325
H         34.15002        8.83304       64.25623
H         35.90260        6.89353       63.05552
H         35.46081        8.09722       60.93860
H         34.70737        9.46427       61.84305
H         32.95325        7.85617       62.75357
H         33.77375        6.51336       61.91524
N         37.26278        9.99475       63.22454
C         38.53696       10.68359       63.22014
H         39.38135       10.01331       62.95641
H         38.50223       11.51538       62.48668
H         38.72717       11.10543       64.23029
H         36.43108       10.55302       63.43920
Ca        30.23034        7.74618       58.79048
O         27.63053        7.30152       60.37592
H         26.66230        7.12169       60.28273
H         28.06943        6.48581       60.02821
O         29.50528        9.12423       61.60665
H         30.45437        9.11032       61.88201
H         29.01717        8.77853       62.39528

Ca 1.0



