%chk=holoCaM-CaMKII.loop2.water0.frame112.chk
%nprocshared=20
%mem=10GB
%nosave
#b3lyp/svp scf=(tight,noincore,xqc) Test 
#IOP(5/87=12) Density=Current Pop=(MK,readradii) iop(6/33=2) iop(6/42=6)

holoCaM-CaMKII.loop2.water0.frame112 

   -2  1 
C         26.38977       39.42665       58.94919
C         25.99474       38.92742       57.59249
O         26.66067       39.24238       56.61653
H         27.29594       40.06524       58.88862
H         25.55770       40.02757       59.37481
H         26.59510       38.56597       59.61905
N         24.89294       38.13987       57.46302
C         24.40593       37.64484       56.18088
C         24.07494       38.81578       55.25714
O         23.13625       39.55365       55.52271
C         23.17976       36.73565       56.42683
C         22.38243       36.47495       55.18974
O         22.87122       35.80293       54.13643
O         21.24960       36.91521       55.13137
H         24.37743       37.89494       58.32350
H         25.19968       37.03305       55.70796
H         22.49866       37.26644       57.12910
H         23.49072       35.78456       56.91181
N         24.85204       39.05090       54.16053
C         24.65143       40.16641       53.24711
C         23.59614       39.83632       52.20536
O         22.59792       40.53733       52.12296
C         25.97865       40.51766       52.55189
H         25.68609       38.46571       54.02832
H         24.36219       41.07081       53.82796
H         26.74192       40.78806       53.31272
H         26.37634       39.66333       51.96356
H         25.84081       41.38393       51.87049
N         23.78946       38.80244       51.33466
C         22.89593       38.49595       50.21398
C         21.50510       37.99485       50.61809
O         20.68922       37.79590       49.72814
C         23.57547       37.48302       49.26178
C         23.92300       36.19844       49.95354
O         25.08040       35.81419       50.00756
O         22.95577       35.47708       50.53406
H         24.66143       38.26051       51.42868
H         22.75321       39.42989       49.62654
H         24.50594       37.93616       48.85459
H         22.90567       37.26177       48.40275
N         21.14789       37.77368       51.91295
C         19.81655       37.33596       52.30615
C         19.48805       35.92085       51.87295
O         18.43411       35.72105       51.28681
H         21.82425       37.95236       52.66682
H         19.05397       38.05780       51.93933
H         19.74484       37.35282       53.40616
N         20.32799       34.88274       52.16459
C         20.01252       33.47590       51.90919
C         20.13752       32.60777       53.17137
O         19.91557       31.40892       53.07144
C         20.86130       32.92042       50.74100
C         22.34731       32.80010       50.97066
N         23.13963       32.31814       49.98634
O         22.84882       33.14567       52.02613
H         21.23592       35.10362       52.58467
H         18.95877       33.38951       51.56409
H         20.69451       33.57086       49.85430
H         20.48322       31.90587       50.49057
H         22.73732       32.03135       49.08198
H         24.15773       32.23698       50.12608
N         20.44230       33.13596       54.39636
C         20.47769       32.35503       55.62739
C         21.70343       31.47552       55.82484
O         21.77271       30.84982       56.87315
H         20.55728       34.15284       54.49923
H         19.54695       31.75297       55.71079
H         20.48635       33.06675       56.48211
N         22.72035       31.39569       54.91801
C         23.95140       30.63770       55.14803
C         25.15207       31.61309       55.13732
O         25.33690       32.18751       53.87819
C         24.10027       29.49458       54.11305
C         23.03015       28.41992       54.31534
O         24.00118       29.99201       52.80072
H         22.64189       31.91588       54.04013
H         23.94056       30.17409       56.15867
H         25.08166       28.98560       54.27186
H         24.91485       30.00722       52.41402
H         22.01179       28.84200       54.18333
H         23.17530       27.60064       53.57926
H         23.11287       27.98729       55.33597
N         26.40202       31.00335       55.60031
C         27.49019       32.00314       55.71326
C         28.50989       31.69684       54.63359
O         29.00400       30.57916       54.57370
C         28.11720       32.06467       57.14866
C         27.05805       32.60164       58.15870
C         29.36361       32.97804       57.15561
C         27.55434       32.71818       59.60250
H         26.24102       30.49453       56.49877
H         27.11020       33.03083       55.53086
H         28.44670       31.04575       57.44936
H         26.17663       31.92946       58.17407
H         26.70917       33.60794       57.83546
H         29.09068       34.01554       56.87259
H         29.85493       32.99203       58.14804
H         30.13339       32.59926       56.45535
H         26.72049       33.06523       60.24898
H         27.90993       31.73449       59.97250
H         28.36548       33.46877       59.69573
N         28.90660       32.68075       53.77398
C         29.92902       32.50379       52.74873
C         31.24298       33.06278       53.25520
O         31.26837       33.58213       54.35944
C         29.48819       33.20973       51.45194
C         28.17146       32.68493       50.95240
O         28.05518       31.51227       50.63490
O         27.11190       33.51067       50.85138
H         28.53982       33.63309       53.91403
H         30.09419       31.42149       52.55135
H         30.25241       33.07353       50.65800
H         29.38781       34.30084       51.65114
N         32.40034       32.93829       52.54737
C         33.68043       33.36372       53.10377
C         33.73938       34.87278       53.34615
O         34.05934       35.23965       54.46618
C         34.88284       32.86634       52.26987
C         36.18621       33.12333       52.99705
C         37.15412       33.98529       52.45424
C         36.44216       32.50158       54.23521
C         38.34906       34.22564       53.14203
C         37.63620       32.74475       54.91739
C         38.58886       33.60721       54.37241
H         32.37940       32.46124       51.63214
H         33.77960       32.85191       54.08698
H         34.89821       33.33984       51.27347
H         34.79414       31.77052       52.10605
H         36.98268       34.47681       51.50499
H         35.71970       31.82649       54.67594
H         39.08969       34.89359       52.72251
H         37.82129       32.26379       55.86955
H         39.51273       33.79487       54.90398
N         33.44249       35.81356       52.38688
C         33.46836       37.25689       52.62478
C         32.74246       37.65833       53.89155
O         33.27777       38.41642       54.68889
C         32.72480       37.83394       51.40901
C         33.10853       36.86310       50.32316
C         32.97527       35.52553       51.04397
H         34.52589       37.60355       52.63924
H         31.62320       37.72355       51.53745
H         32.94210       38.90357       51.20160
H         32.52096       36.94128       49.38373
H         34.18472       37.03330       50.09110
H         31.91626       35.19068       51.10285
H         33.57920       34.78862       50.48954
N         31.51053       37.14121       54.13819
C         30.69956       37.44804       55.30789
C         31.44413       37.07374       56.57941
O         31.62912       37.92710       57.43526
C         29.35690       36.68786       55.22707
C         28.52701       37.07451       53.98186
C         27.26356       36.27283       53.87500
O         26.53667       36.41283       52.90443
O         26.92640       35.39055       54.83193
H         31.14693       36.46591       53.45040
H         30.47168       38.53757       55.32695
H         28.75697       36.90320       56.13892
H         29.56507       35.59746       55.18948
H         29.09656       36.88032       53.05221
H         28.27637       38.15649       54.01532
N         31.92569       35.81368       56.75410
C         32.66262       35.40651       57.92861
H         33.57004       36.03589       58.04584
H         32.02063       35.49479       58.82914
H         32.98201       34.34674       57.82076
H         31.78552       35.11906       56.01671
Ca        24.44351       34.23066       54.19214

Ca 1.0



