%chk=holoCaM.loop2.water2.frame444.chk
%nprocshared=20
%mem=10GB
%nosave
#b3lyp/svp scf=(tight,noincore,xqc) Test 
#IOP(5/87=12) Density=Current Pop=(MK,readradii) iop(6/33=2) iop(6/42=6)

holoCaM.loop2.water2.frame444 

   -2  1 
C          7.30640       98.04412       63.77166
C          6.93171       99.45697       64.11365
O          7.75199      100.34893       63.95281
H          8.17816       97.73445       64.38419
H          6.47012       97.34128       63.97784
H          7.56491       97.97456       62.69526
N          5.69116       99.73395       64.59379
C          5.25329      101.07277       64.96565
C          6.07015      101.57939       66.14717
O          6.20677      100.84547       67.11665
C          3.76555      101.02194       65.33214
C          3.14474      102.36770       65.51256
O          1.86134      102.41400       65.86828
O          3.75532      103.40550       65.31253
H          5.02330       98.95209       64.69173
H          5.34992      101.74041       64.08372
H          3.62839      100.42549       66.26033
H          3.19855      100.52892       64.51199
N          6.62430      102.82749       66.14598
C          7.49884      103.31613       67.20698
C          6.87171      104.42288       68.05765
O          7.49992      104.81123       69.03239
C          8.81159      103.78676       66.56671
H          6.43106      103.45748       65.35835
H          7.73632      102.48877       67.90949
H          8.61939      104.62965       65.86597
H          9.53657      104.12016       67.33763
H          9.27098      102.95551       65.98802
N          5.65635      104.97742       67.76950
C          5.00962      106.01887       68.58293
C          3.56903      105.66689       68.95944
O          2.93196      106.47053       69.62644
C          5.05772      107.35377       67.81892
C          4.44915      107.21609       66.46107
O          5.29742      107.01968       65.44710
O          3.24829      107.06928       66.30647
H          5.18196      104.68878       66.90557
H          5.56873      106.17612       69.53116
H          6.13572      107.59909       67.68620
H          4.59704      108.19441       68.37996
N          2.98810      104.49297       68.58443
C          1.62974      104.11492       68.93116
C          0.56102      104.94628       68.24680
O         -0.33998      105.41981       68.92369
H          3.53241      103.79403       68.06235
H          1.50028      104.12171       70.03594
H          1.47139      103.06945       68.58836
N          0.55527      105.08347       66.88930
C         -0.56736      105.62311       66.11891
C         -1.10150      104.56886       65.13562
O         -1.80894      104.92087       64.20152
C         -0.19293      106.93533       65.38590
C          0.86216      106.84299       64.30814
N          1.06318      107.89629       63.48459
O          1.52375      105.82974       64.15476
H          1.36290      104.72202       66.36696
H         -1.41051      105.89919       66.78937
H          0.11356      107.70931       66.12201
H         -1.12378      107.29964       64.89756
H          0.50325      108.75593       63.58274
H          1.75719      107.84078       62.72598
N         -0.82074      103.24482       65.30768
C         -1.24332      102.17439       64.41558
C         -0.59120      102.15681       63.03788
O         -0.90035      101.23313       62.29747
H         -0.33806      102.95464       66.16496
H         -2.34766      102.20525       64.30258
H         -0.97910      101.20637       64.89605
N          0.27877      103.11471       62.59685
C          0.84273      103.12305       61.24343
C          2.35563      103.26535       61.24727
O          2.94994      103.46999       62.29874
C          0.21714      104.27675       60.41694
C         -1.28956      104.08172       60.20867
O          0.48819      105.52988       60.99723
H          0.50958      103.89765       63.21383
H          0.61358      102.16723       60.72327
H          0.66249      104.27922       59.39932
H         -0.10778      105.64601       61.78167
H         -1.82951      104.08254       61.17854
H         -1.68768      104.90355       59.57737
H         -1.47687      103.11596       59.69269
N          3.04084      103.17033       60.06812
C          4.47812      103.38137       59.93831
C          4.77576      104.50127       58.94429
O          3.94234      104.83010       58.10937
C          5.22346      102.05847       59.56125
C          4.66175      101.41146       58.26479
C          5.17766      101.08216       60.75134
C          5.43143      100.16906       57.80419
H          2.51099      102.94815       59.21164
H          4.88504      103.73002       60.90999
H          6.29219      102.30110       59.38691
H          4.71188      102.15411       57.44050
H          3.60063      101.11704       58.40918
H          4.13475      100.77951       60.98079
H          5.78472      100.17512       60.55759
H          5.61827      101.56246       61.64892
H          4.99061       99.79430       56.85584
H          6.49924      100.41523       57.62682
H          5.35901       99.34595       58.54386
N          5.98135      105.12874       58.99977
C          6.45890      106.16631       58.09040
C          7.65703      105.56993       57.34566
O          7.98247      104.42570       57.62432
C          6.82848      107.40660       58.95541
C          7.09002      108.71472       58.25045
O          6.89227      108.85557       57.05624
O          7.47390      109.78060       58.97923
H          6.63742      104.82869       59.72960
H          5.66228      106.43784       57.36383
H          7.70822      107.14638       59.58368
H          5.98498      107.62530       59.64249
N          8.36061      106.22104       56.38184
C          9.50137      105.60103       55.71304
C         10.60580      105.22139       56.70896
O         10.97566      104.05712       56.69942
C          9.99809      106.47355       54.54019
C         11.19971      105.88342       53.83721
C         11.15319      104.59525       53.27097
C         12.38616      106.63053       53.73806
C         12.27628      104.06739       52.62606
C         13.50286      106.10157       53.08586
C         13.44916      104.82056       52.53197
H          8.08046      107.16253       56.09033
H          9.14479      104.65606       55.24314
H         10.23052      107.49702       54.88214
H          9.16930      106.57001       53.80537
H         10.25414      103.99577       53.32888
H         12.44699      107.62543       54.16137
H         12.23701      103.07432       52.19716
H         14.41013      106.68650       53.01011
H         14.31613      104.41260       52.02891
N         11.16002      106.09235       57.61629
C         12.16993      105.71184       58.60462
C         11.85183      104.42518       59.34649
O         12.70573      103.55324       59.43069
C         12.16784      106.89349       59.58651
C         11.88798      108.05232       58.66468
C         10.78491      107.48309       57.77879
H         13.15565      105.63295       58.09406
H         11.29214      106.82756       60.27267
H         13.08813      106.98104       60.20264
H         11.63142      109.01200       59.16124
H         12.79835      108.20387       58.03981
H          9.79214      107.52803       58.27354
H         10.78203      108.06721       56.84382
N         10.61939      104.24104       59.89060
C         10.21874      103.04816       60.63344
C         10.34478      101.81342       59.75962
O         11.04965      100.88649       60.13197
C          8.76270      103.19131       61.11853
C          8.58323      104.38660       62.06638
C          7.14562      104.60084       62.39996
O          6.52493      103.75091       63.01101
O          6.53026      105.74359       62.04087
H          9.92939      104.99231       59.74279
H         10.86786      102.93161       61.53056
H          8.43645      102.26381       61.63974
H          8.12135      103.32932       60.23185
H          8.94628      105.32584       61.60769
H          9.15992      104.22003       63.00227
N          9.69440      101.74510       58.56764
C          9.78422      100.60897       57.68198
H          9.19266      100.80788       56.76153
H         10.84182      100.43848       57.39135
H          9.37413       99.70711       58.18110
H          9.12313      102.53640       58.26496
Ca         4.86461      106.35994       63.37635
O          3.94311      109.18988       63.19176
H          4.06944      109.09920       62.21387
H          4.85759      109.30624       63.55149
O          3.27618      106.41966       60.91012
H          2.82428      106.40102       60.03054
H          4.04154      107.03130       60.77941

Ca 1.0



