%chk=holoCaM.loop1.water2.frame194.chk
%nprocshared=20
%mem=10GB
%nosave
#b3lyp/svp scf=(tight,noincore,xqc) Test 
#IOP(5/87=12) Density=Current Pop=(MK,readradii) iop(6/33=2) iop(6/42=6)

holoCaM.loop1.water2.frame194 

   0  1 
C         16.66726       62.33021      108.07633
C         16.66893       61.12607      108.96801
O         15.61502       60.75042      109.46166
H         17.68413       62.54021      107.68103
H         15.99112       62.14858      107.21431
H         16.31578       63.21357      108.64567
N         17.82494       60.44623      109.19317
C         17.87687       59.21967      109.97033
C         17.54190       59.47446      111.44256
O         18.32305       60.10236      112.14265
C         19.27120       58.58855      109.79528
C         19.38066       57.21123      110.33795
O         18.32938       56.61557      110.91124
O         20.39920       56.58063      110.14051
H         18.68545       60.77835      108.72967
H         17.13387       58.51985      109.51840
H         20.05507       59.23511      110.24198
H         19.46913       58.49559      108.70306
N         16.35880       59.03172      111.95658
C         15.91633       59.23542      113.33861
C         16.67227       58.37603      114.35578
O         16.44822       58.56646      115.54362
C         14.42120       58.83522      113.50005
C         13.41280       59.51953      112.56393
C         13.32208       61.03392      112.74746
C         12.22689       61.60277      111.83292
N         12.12637       63.05330      111.97106
H         15.71445       58.59785      111.29516
H         16.03969       60.31161      113.58680
H         14.09662       59.02543      114.54740
H         14.33397       57.73999      113.31667
H         12.41485       59.07632      112.78002
H         13.65337       59.30083      111.50693
H         14.29686       61.49961      112.48980
H         13.07467       61.26626      113.80626
H         11.24778       61.14135      112.09549
H         12.45639       61.35135      110.77283
H         13.02937       63.50108      111.69243
H         11.36624       63.40247      111.34361
H         11.89392       63.30473      112.95917
N         17.47896       57.34389      113.97434
C         18.02837       56.35336      114.89986
C         19.54359       56.28191      114.87964
O         20.09523       55.58001      115.71731
C         17.51453       54.95549      114.48690
C         16.01758       54.88603      114.42427
O         15.28129       55.08553      115.53236
O         15.46219       54.64135      113.36530
H         17.62598       57.18609      112.98007
H         17.71183       56.58309      115.94049
H         17.88067       54.17926      115.19315
H         17.92324       54.71532      113.47701
N         20.28342       56.88574      113.90927
C         21.71297       56.68345      113.77088
C         22.04189       55.21444      113.60754
O         22.89898       54.71816      114.32472
H         19.82582       57.45914      113.18858
H         22.25392       57.10966      114.64363
H         22.05462       57.21717      112.85740
N         21.38167       54.45812      112.68338
C         21.68639       53.05234      112.41734
C         22.15535       52.83564      110.97709
O         22.55308       51.72337      110.66034
C         20.48618       52.14561      112.79417
C         19.20768       52.37547      112.03128
O         19.13090       53.22343      111.16257
O         18.12410       51.62994      112.31824
H         20.62795       54.90999      112.14766
H         22.53172       52.72817      113.06262
H         20.26297       52.29322      113.87286
H         20.77848       51.08314      112.64904
N         22.14987       53.84572      110.05590
C         22.67300       53.73770      108.70645
C         21.60288       53.73770      107.62844
O         21.98776       53.72556      106.46790
H         21.79290       54.76460      110.31315
H         23.25393       52.79988      108.57753
H         23.37744       54.58338      108.54694
N         20.26528       53.63627      107.90794
C         19.27230       53.32198      106.87524
C         17.94528       54.12506      107.01910
O         17.15479       53.58872      108.03945
C         19.01321       51.78083      106.86539
C         20.11589       51.05747      106.09719
O         18.96725       51.21822      108.15935
H         19.96984       53.58651      108.88958
H         19.66812       53.62258      105.88078
H         18.06767       51.55764      106.32577
H         18.48012       51.81816      108.77332
H         19.90243       49.96830      106.08484
H         20.14244       51.42012      105.04734
H         21.10702       51.21607      106.56818
N         17.16693       54.08084      105.76718
C         15.93943       54.90992      105.78789
C         14.75923       54.02361      105.39267
O         14.66063       53.60584      104.24808
C         16.09297       56.19365      104.89191
C         17.08609       57.18008      105.57047
C         14.74873       56.88982      104.61790
C         17.35886       58.46095      104.77588
H         17.76121       54.30161      104.93505
H         15.73050       55.26508      106.82121
H         16.48102       55.88481      103.89613
H         18.06006       56.67158      105.72556
H         16.68927       57.47615      106.56813
H         14.03327       56.19947      104.12977
H         14.31525       57.28496      105.54931
H         14.87386       57.72760      103.90386
H         16.44255       59.07603      104.66201
H         18.09609       59.08354      105.32580
H         17.77013       58.21575      103.77500
N         13.82457       53.69592      106.33538
C         12.59873       52.93605      106.10065
C         11.61892       53.75705      105.27727
O         11.93529       54.87505      104.90641
C         11.91644       52.56094      107.45809
C         12.79145       51.65259      108.33745
O         11.49807       53.71132      108.15528
H         14.00033       54.00662      107.28824
H         12.84420       51.98833      105.57320
H         11.00507       51.96136      107.26084
H         12.23059       54.01170      108.74965
H         13.73751       52.15479      108.61844
H         12.24263       51.39636      109.26943
H         13.03022       50.71267      107.79807
N         10.38248       53.27820      104.98447
C          9.35521       54.06651      104.30956
C          8.95708       55.28436      105.14107
O          8.95249       56.38214      104.60473
C          8.11001       53.20273      103.99592
C          8.45573       52.08621      102.99933
O          7.58355       52.65095      105.17592
H         10.15326       52.31654      105.27625
H          9.74443       54.42514      103.32876
H          7.35073       53.86692      103.52006
H          6.67801       52.30958      104.95529
H          7.54337       51.50742      102.74742
H          8.86085       52.52465      102.06210
H          9.20829       51.38595      103.41696
N          8.61619       55.16037      106.45912
C          8.16899       56.28492      107.28658
C          9.19733       57.40341      107.28798
O          8.84911       58.53828      106.99081
C          7.90259       55.86229      108.75522
C          6.91087       54.69827      108.96361
C          5.52431       54.86038      108.32130
C          4.74568       56.08236      108.82763
N          3.38925       56.08981      108.27752
H          8.68841       54.22733      106.88465
H          7.21547       56.67959      106.87234
H          7.52304       56.75212      109.30498
H          8.85866       55.56271      109.23829
H          6.78303       54.55391      110.05922
H          7.35249       53.76020      108.57049
H          4.94326       53.94530      108.57009
H          5.62141       54.90948      107.21559
H          5.26992       57.01460      108.52459
H          4.68443       56.05556      109.93799
H          3.42006       56.09380      107.23201
H          2.86611       55.24607      108.60866
H          2.88694       56.94540      108.60674
N         10.49769       57.13292      107.58521
C         11.56931       58.12737      107.59002
C         11.61903       58.85716      106.25256
O         11.51582       60.07570      106.24534
C         12.91996       57.44312      107.93574
C         12.92679       56.92134      109.38847
C         14.18397       56.17995      109.75539
O         14.52103       55.18903      109.14220
O         14.90424       56.54292      110.82343
H         10.73592       56.15043      107.78093
H         11.37000       58.89087      108.37534
H         13.75384       58.17091      107.82109
H         13.08303       56.59221      107.23936
H         12.08124       56.22777      109.55172
H         12.79396       57.77905      110.07548
N         11.71474       58.17190      105.08195
C         11.69000       58.79213      103.77129
H         11.60963       59.89759      103.82447
H         12.61399       58.53062      103.21661
H         10.81711       58.40660      103.20177
H         11.77399       57.15333      105.11672
Ca        17.47613       54.95931      109.75250
O         14.21641       53.01765      111.25835
H         13.31978       53.30816      110.95646
H         14.04584       52.50886      112.09000
O         16.03498       51.40523      109.62230
H         16.22294       50.99818      108.73937
H         16.31448       50.72024      110.27900

Ca 1.0



