%chk=holoCaM-CaMKII.loop3.water2.frame308.chk
%nprocshared=20
%mem=10GB
%nosave
#b3lyp/svp scf=(tight,noincore,xqc) Test 
#IOP(5/87=12) Density=Current Pop=(MK,readradii) iop(6/33=2) iop(6/42=6)

holoCaM-CaMKII.loop3.water2.frame308 

   0  1 
C         43.62953        7.09064       52.90806
C         42.50902        6.48658       53.70388
O         42.74041        6.04332       54.81953
H         44.42417        6.33327       52.74867
H         43.27674        7.44181       51.91433
H         44.05003        7.95942       53.45549
N         41.25107        6.45041       53.18944
C         40.10850        5.89372       53.90090
C         40.30323        4.38981       54.09466
O         40.57565        3.70224       53.12011
C         38.82889        6.19512       53.09310
C         37.56421        5.92084       53.84533
O         37.57817        5.59071       55.14739
O         36.49732        5.98919       53.26102
H         41.09743        6.86125       52.25481
H         40.02260        6.41112       54.87980
H         38.85049        5.58788       52.16194
H         38.79524        7.26679       52.80640
N         40.19959        3.81717       55.32930
C         40.50891        2.41004       55.59795
C         39.69103        1.45538       54.73643
O         40.29035        0.63415       54.05636
C         40.34709        2.09643       57.10531
C         40.91854        0.71700       57.47938
C         40.90768        0.48977       58.99919
C         41.60051       -0.83478       59.35830
N         41.64966       -1.03225       60.80707
H         39.92959        4.42146       56.11940
H         41.58608        2.25875       55.35994
H         39.28305        2.17076       57.41148
H         40.93135        2.85322       57.67169
H         41.97457        0.67450       57.13334
H         40.34465       -0.08979       56.97366
H         39.86089        0.48549       59.37471
H         41.45968        1.31892       59.49417
H         42.64166       -0.82316       58.96394
H         41.05788       -1.68376       58.88670
H         42.14377       -1.93093       61.01285
H         42.17730       -0.25015       61.25931
H         40.68154       -1.07932       61.19890
N         38.32950        1.52600       54.68911
C         37.50088        0.63101       53.88055
C         36.94517        1.30050       52.63206
O         36.31750        0.60966       51.84057
C         36.37867        0.00269       54.74797
C         35.24606        0.91892       55.18378
O         35.12010        2.17307       54.71462
O         34.36183        0.47067       55.89340
H         37.87736        2.26132       55.23249
H         38.13424       -0.20513       53.50985
H         36.85424       -0.44188       55.64752
H         35.90550       -0.82296       54.17208
N         37.13998        2.62583       52.37061
C         36.63664        3.27320       51.17272
C         35.13178        3.20193       51.09457
O         34.62255        2.65756       50.12491
H         37.67315        3.20815       53.02964
H         37.09387        2.79569       50.27755
H         36.93810        4.34182       51.17225
N         34.35595        3.74636       52.07713
C         32.89590        3.73546       52.04091
C         32.30544        5.13607       51.92562
O         31.08870        5.23518       51.84925
C         32.31953        2.98732       53.26593
C         32.50945        3.66434       54.60839
N         31.98240        3.09902       55.71809
O         33.11568        4.72096       54.70485
H         34.82336        4.19324       52.87734
H         32.54979        3.17914       51.14250
H         32.76017        1.96715       53.30454
H         31.22474        2.87276       53.11217
H         31.46177        2.21158       55.65919
H         32.08392        3.55471       56.63645
N         33.08640        6.25756       51.88338
C         32.54374        7.59714       51.71583
C         32.93085        8.56079       52.82006
O         32.58200        9.72530       52.68345
H         34.11146        6.17517       51.92192
H         31.43594        7.58750       51.64010
H         32.94216        8.00010       50.76007
N         33.66442        8.19210       53.91459
C         34.11686        9.16502       54.91417
C         35.17897        8.59591       55.85375
O         35.40410        7.39367       55.87267
C         32.95405        9.81268       55.71085
C         32.15946        8.84759       56.56344
C         32.17682        8.97116       57.96425
C         31.36883        7.84180       55.97863
C         31.42441        8.10413       58.76220
C         30.61615        6.97718       56.77846
C         30.64158        7.10587       58.17408
O         29.91716        6.28149       58.95715
H         33.96639        7.21204       53.99654
H         34.63088        9.97134       54.34665
H         32.24984       10.33582       55.03304
H         33.39421       10.60274       56.35688
H         32.77209        9.73920       58.44239
H         31.31665        7.72871       54.90572
H         31.44879        8.21070       59.83942
H         30.00915        6.21173       56.31131
H         29.35732        5.58282       58.58938
N         35.94032        9.44948       56.60316
C         37.07152        9.02835       57.42187
C         36.83929        9.45344       58.86597
O         36.57699       10.62374       59.10948
C         38.42236        9.62476       56.89221
C         38.76327        9.22609       55.42972
C         39.58476        9.12048       57.77678
C         37.99326        9.96940       54.33947
H         35.75017       10.46227       56.54367
H         37.18818        7.92358       57.38587
H         38.41243       10.73508       56.96140
H         38.64236        8.13381       55.30952
H         39.82845        9.47805       55.23050
H         40.55355        9.53984       57.43122
H         39.46009        9.44374       58.82773
H         39.65159        8.01150       57.74251
H         38.14941       11.06373       54.44105
H         38.37453        9.65287       53.34584
H         36.91945        9.75270       54.34682
N         37.01216        8.55830       59.88139
C         36.90249        8.89311       61.29907
C         38.28206        8.86618       61.94680
O         39.25718        8.62471       61.25649
C         35.93734        7.90532       61.97518
O         34.67416        7.95864       61.36813
H         37.30358        7.59880       59.64666
H         36.50721        9.92366       61.43443
H         35.83827        8.10845       63.06488
H         36.33001        6.86988       61.87856
H         34.21805        8.76295       61.73013
N         38.44735        9.15281       63.26925
C         39.75794        9.23697       63.91709
C         40.53632        7.93651       63.83302
O         41.66621        7.95567       63.36460
C         39.59987        9.63572       65.38790
H         37.60795        9.36066       63.83108
H         40.35073       10.04059       63.42401
H         40.59952        9.73614       65.86375
H         39.08071       10.61470       65.46002
H         39.01173        8.87603       65.94520
N         39.99003        6.76715       64.26832
C         40.69335        5.48605       64.24540
C         41.22245        5.16641       62.86475
O         42.39035        4.82504       62.73793
C         39.75303        4.36165       64.69696
H         39.01919        6.79001       64.61734
H         41.54838        5.51700       64.95732
H         39.38811        4.55961       65.72669
H         38.87760        4.28243       64.01632
H         40.29131        3.38901       64.69782
N         40.41263        5.28243       61.77955
C         40.83925        4.96614       60.42147
C         42.06455        5.78010       60.03721
O         43.07643        5.18835       59.68767
C         39.68287        5.17726       59.41912
C         38.48022        4.27415       59.75898
C         37.42503        4.31190       58.69981
O         36.83291        5.47068       58.36256
O         37.07556        3.27626       58.15947
H         39.45494        5.62519       61.94039
H         41.11532        3.88802       60.37496
H         40.05642        4.91539       58.40883
H         39.36240        6.24116       59.40335
H         38.00879        4.59033       60.71101
H         38.82838        3.22429       59.87366
N         42.05857        7.13780       60.12846
C         43.20965        7.97184       59.84786
H         44.08903        7.38415       59.51122
H         42.94976        8.70771       59.05934
H         43.49308        8.52229       60.77077
H         41.20728        7.60904       60.44657
Ca        36.23922        3.88897       55.58686
O         33.97628        3.23063       58.51396
H         33.55690        2.58405       59.13510
H         34.26295        2.68352       57.74030
O         34.07277        6.30465       58.33932
H         33.64470        5.98907       59.17423
H         33.43583        6.05795       57.62254

Ca 1.0



