%chk=holoCaM-CaMKII.loop1.water1.frame73.chk
%nprocshared=20
%mem=10GB
%nosave
#b3lyp/svp scf=(tight,noincore,xqc) Test 
#IOP(5/87=12) Density=Current Pop=(MK,readradii) iop(6/33=2) iop(6/42=6)

holoCaM-CaMKII.loop1.water1.frame73 

   0  1 
C         70.50954       45.59872       83.34319
C         69.09284       45.20364       83.61699
O         68.54019       45.62289       84.62254
H         71.14229       44.68831       83.28719
H         70.56051       46.14319       82.37728
H         70.89563       46.25744       84.14983
N         68.43912       44.38795       82.74642
C         67.06414       43.95339       82.93111
C         67.06110       42.43434       83.03408
O         67.51159       41.77192       82.10937
C         66.22303       44.49053       81.75362
C         64.73807       44.33381       81.91691
O         63.99628       44.74807       81.04225
O         64.20834       43.80622       83.03329
H         68.94099       44.06173       81.90519
H         66.64505       44.39222       83.86425
H         66.54934       44.00666       80.80807
H         66.40558       45.58449       81.66575
N         66.58221       41.81878       84.15199
C         66.61170       40.37593       84.37308
C         65.25640       39.73376       84.09300
O         65.11660       38.53854       84.31485
C         66.99937       40.05555       85.83869
C         68.23115       40.76937       86.41485
C         69.49846       40.63278       85.56813
C         70.70688       41.18316       86.34114
N         71.90764       41.19294       85.50880
H         66.16343       42.40299       84.87723
H         67.36020       39.90288       83.69956
H         67.15861       38.95658       85.91534
H         66.15063       40.31905       86.50958
H         68.40558       40.33201       87.42366
H         68.01189       41.85161       86.54878
H         69.35879       41.20556       84.62587
H         69.68787       39.56644       85.31968
H         70.88074       40.54280       87.23611
H         70.50278       42.21999       86.69058
H         71.78315       41.87138       84.72235
H         72.72221       41.49684       86.08997
H         72.09723       40.23783       85.12813
N         64.22016       40.45699       83.58413
C         62.89290       39.92041       83.32774
C         62.66085       39.83852       81.83446
O         62.37499       38.76400       81.32567
C         61.81905       40.84338       83.96202
C         61.86680       40.86677       85.45991
O         61.69767       39.83102       86.08188
O         62.05211       42.01245       86.14601
H         64.37515       41.43799       83.33525
H         62.78193       38.89399       83.74367
H         60.80983       40.47792       83.67431
H         61.92516       41.88209       83.58087
N         62.72533       40.96613       81.08360
C         62.39892       41.04489       79.67198
C         61.13781       41.86178       79.52802
O         60.18185       41.39783       78.92365
H         62.97807       41.84099       81.55919
H         62.24234       40.04100       79.21993
H         63.24266       41.53557       79.14156
N         61.05212       43.07055       80.14631
C         59.86339       43.90459       80.18904
C         60.17503       45.33488       79.75797
O         59.29268       46.17753       79.84367
C         59.23940       43.81305       81.60414
C         60.09579       44.22896       82.77285
O         61.22256       44.66980       82.62719
O         59.60400       44.08367       84.01575
H         61.86222       43.39869       80.68266
H         59.08191       43.51425       79.50048
H         58.96570       42.74796       81.77309
H         58.30137       44.40758       81.63083
N         61.39142       45.67313       79.23204
C         61.71746       47.00237       78.74859
C         61.95894       48.02907       79.83420
O         62.26363       49.15644       79.46561
H         62.10773       44.95097       79.07853
H         60.92367       47.34610       78.05018
H         62.66574       46.93929       78.17164
N         61.86704       47.74806       81.16925
C         62.13892       48.74185       82.20626
C         63.20981       48.27014       83.17707
O         63.58282       47.10277       83.16849
C         60.84589       49.10386       82.97618
C         59.77689       49.70649       82.05327
O         60.33821       47.99313       83.67606
H         61.59067       46.80560       81.46821
H         62.52368       49.67533       81.73817
H         61.09057       49.88657       83.72664
H         59.95425       47.35976       83.01593
H         59.46308       48.97637       81.27729
H         58.88560       49.99536       82.64875
H         60.17486       50.61339       81.54966
N         63.77702       49.17009       84.02675
C         64.81154       48.85981       85.00814
C         64.36530       49.42632       86.34878
O         64.07820       50.61676       86.40749
C         66.16551       49.49636       84.56590
C         66.58353       48.97146       83.16471
C         67.26878       49.19232       85.60381
C         67.79009       49.70330       82.57229
H         63.48927       50.15918       83.94052
H         64.97346       47.76042       85.08687
H         66.02606       50.59867       84.50003
H         65.75422       49.12987       82.44472
H         66.79308       47.87964       83.21292
H         68.22719       49.67907       85.33861
H         66.99200       49.57968       86.60402
H         67.43677       48.09679       85.68170
H         67.56657       50.78811       82.48153
H         68.70353       49.56568       83.18288
H         68.00039       49.30340       81.55793
N         64.33197       48.66210       87.47776
C         63.96147       49.20824       88.78278
C         65.20366       49.55646       89.58515
O         66.31017       49.27391       89.14661
C         63.05375       48.22173       89.56576
C         61.76228       47.89769       88.80028
O         63.76977       47.05463       89.90281
H         64.65595       47.68686       87.42595
H         63.40278       50.16083       88.64629
H         62.73871       48.69356       90.52041
H         63.47086       46.29451       89.34010
H         61.18255       48.82251       88.60379
H         62.00987       47.40890       87.83641
H         61.13590       47.20266       89.40085
N         65.08489       50.19992       90.78065
C         66.22303       50.52396       91.64039
C         66.91210       49.24472       92.08042
O         68.13289       49.20696       92.12203
C         65.76593       51.35162       92.86533
C         66.94476       51.73172       93.76922
O         65.16242       52.54299       92.42486
H         64.13721       50.45518       91.09738
H         66.94276       51.15617       91.07127
H         65.05005       50.75593       93.48106
H         64.18358       52.38623       92.38359
H         67.69387       52.32283       93.19893
H         66.58326       52.34420       94.62144
H         67.43931       50.82861       94.18380
N         66.17347       48.13654       92.36545
C         66.74800       46.82981       92.66255
C         67.65618       46.38815       91.52421
O         68.81020       46.06859       91.77398
C         65.59480       45.82151       92.89170
C         66.06017       44.39801       93.23044
C         64.84959       43.50505       93.54597
C         65.27510       42.06619       93.86425
N         64.11528       41.24391       94.21172
H         65.14572       48.21656       92.31751
H         67.34179       46.89034       93.60183
H         64.94589       45.77640       91.98960
H         64.98062       46.20158       93.73832
H         66.73036       44.42754       94.11674
H         66.61974       43.97496       92.36775
H         64.15601       43.49211       92.67615
H         64.31021       43.92589       94.42332
H         65.98822       42.06740       94.71807
H         65.78584       41.62780       92.97811
H         63.43350       41.22371       93.41875
H         64.43309       40.26774       94.41001
H         63.64851       41.62548       95.06680
N         67.19473       46.35574       90.24270
C         67.99435       45.88440       89.11111
C         69.19684       46.77093       88.81424
O         70.05442       46.34283       88.05429
C         67.10999       45.72378       87.85127
C         66.01183       44.68997       88.13538
C         65.08702       44.38471       87.00394
O         64.23600       45.28919       86.48167
O         64.98165       43.22409       86.65347
H         66.22305       46.64892       90.08326
H         68.38743       44.87791       89.38034
H         67.72925       45.35923       87.00649
H         66.67451       46.70441       87.57103
H         65.37295       45.00332       88.97799
H         66.51317       43.74174       88.43067
N         69.33463       48.00574       89.37254
C         70.49357       48.85404       89.19034
H         71.28203       48.37061       88.57755
H         70.18631       49.80203       88.70261
H         70.92528       49.08969       90.18692
H         68.58271       48.38028       89.95505
Ca        62.64895       44.07838       85.43202
O         60.37831       45.95108       86.46846
H         59.58194       45.49316       86.10428
H         60.15776       46.91344       86.39872

Ca 1.0



