%chk=holoCaM.loop2.water2.frame469.chk
%nprocshared=20
%mem=10GB
%nosave
#b3lyp/svp scf=(tight,noincore,xqc) Test 
#IOP(5/87=12) Density=Current Pop=(MK,readradii) iop(6/33=2) iop(6/42=6)

holoCaM.loop2.water2.frame469 

   -2  1 
C          5.75956       77.93666       56.33655
C          5.90029       79.40897       56.10958
O          6.44372       80.10073       56.95950
H          4.68671       77.65626       56.30001
H          6.30790       77.39076       55.53946
H          6.17988       77.64789       57.32267
N          5.44308       79.95647       54.95170
C          5.60675       81.36543       54.63298
C          4.83295       82.23354       55.62661
O          3.61196       82.18093       55.66149
C          5.15903       81.61186       53.18074
C          5.48443       82.97496       52.66293
O          5.15697       83.26125       51.52777
O          6.14886       83.87496       53.41037
H          5.00970       79.32934       54.25527
H          6.69643       81.58454       54.68578
H          4.06512       81.43283       53.09492
H          5.68387       80.89181       52.51435
N          5.51307       83.02463       56.49968
C          4.90248       83.86359       57.52980
C          4.10692       85.02131       56.94542
O          3.01448       85.30081       57.41707
C          6.00841       84.44236       58.42674
H          6.53955       82.99031       56.45909
H          4.25579       83.24475       58.18986
H          5.56544       85.04693       59.24678
H          6.59310       83.61502       58.88475
H          6.70441       85.08448       57.84479
N          4.63782       85.75931       55.93481
C          4.05277       86.98552       55.38082
C          3.53282       86.82143       53.94694
O          3.05988       87.80237       53.38800
C          5.08623       88.14327       55.45645
C          6.33232       87.89775       54.63950
O          7.16837       88.77696       54.51151
O          6.50942       86.70383       54.04642
H          5.52329       85.40994       55.55807
H          3.17274       87.29455       55.98669
H          5.37592       88.32791       56.51294
H          4.59893       89.06727       55.07372
N          3.51312       85.61484       53.31372
C          2.87797       85.40511       52.02000
C          3.58276       85.97318       50.79236
O          2.99591       85.82187       49.72900
H          3.83212       84.78034       53.82043
H          1.84568       85.82052       52.06752
H          2.76860       84.31251       51.85114
N          4.78889       86.63059       50.80368
C          5.32444       87.22208       49.56614
C          5.68356       86.21085       48.46473
O          5.85519       86.64766       47.33535
C          6.48408       88.23451       49.78086
C          7.80220       87.72961       50.39111
N          8.96125       88.46160       49.89815
O          8.01243       86.36971       50.25872
H          5.27777       86.78156       51.69623
H          4.49568       87.84056       49.15233
H          6.13540       89.06939       50.42657
H          6.70929       88.67392       48.78600
H          8.87061       89.46364       50.17299
H          9.81587       88.07539       50.36174
N          5.81389       84.87144       48.69596
C          6.04915       83.88091       47.64488
C          7.36790       83.13210       47.77243
O          7.58301       82.21232       46.99565
H          5.71975       84.52585       49.65366
H          6.02913       84.34323       46.63444
H          5.21841       83.14506       47.68886
N          8.31834       83.49597       48.67616
C          9.63209       82.86731       48.81247
C          9.87985       82.46750       50.25992
O          9.03470       82.72738       51.10780
C         10.72203       83.86582       48.33686
C         10.65211       84.06869       46.81831
O         10.56122       85.09508       49.00004
H          8.12971       84.29892       49.27811
H          9.70391       81.94324       48.19708
H         11.72953       83.45309       48.56356
H         11.30807       85.68555       48.71976
H          9.67177       84.48867       46.51337
H         11.45564       84.76350       46.49321
H         10.81167       83.09727       46.30259
N         11.04298       81.84057       50.61458
C         11.38605       81.51647       51.99464
C         12.61969       82.29764       52.41796
O         13.70234       82.07249       51.89669
C         11.53468       79.97917       52.23711
C         12.58464       79.29891       51.31187
C         10.15453       79.30901       52.11006
C         12.81656       77.81874       51.62193
H         11.73130       81.61670       49.88094
H         10.57097       81.84456       52.66490
H         11.86092       79.84487       53.29355
H         13.56998       79.78404       51.43580
H         12.28042       79.39175       50.24807
H          9.42908       79.79399       52.79826
H          9.77100       79.38606       51.07132
H         10.19715       78.24200       52.40636
H         13.13856       77.69178       52.67571
H         11.90742       77.21366       51.43702
H         13.61763       77.42710       50.95957
N         12.51560       83.26169       53.37656
C         13.66964       83.96948       53.92445
C         14.45994       82.98475       54.80698
O         14.01639       81.85305       54.95371
C         13.13885       85.19727       54.71802
C         14.11716       86.29777       55.04253
O         15.25665       86.29683       54.60903
O         13.68892       87.35786       55.75371
H         11.57893       83.49176       53.74167
H         14.27996       84.34943       53.07508
H         12.63935       84.83789       55.64079
H         12.36703       85.70473       54.10086
N         15.61963       83.32041       55.43925
C         16.33820       82.40663       56.32427
C         15.48135       81.91569       57.49470
O         15.48705       80.71359       57.70569
C         17.65819       83.02405       56.82331
C         18.51292       82.00626       57.55216
C         18.94985       80.83806       56.89429
C         18.88945       82.21415       58.88950
C         19.73659       79.89802       57.56432
C         19.68331       81.27211       59.55417
C         20.10437       80.11494       58.89305
H         16.02065       84.25130       55.29295
H         16.61260       81.52132       55.70986
H         17.43519       83.90167       57.46805
H         18.24181       83.38226       55.94788
H         18.68436       80.64844       55.86236
H         18.57195       83.10404       59.41750
H         20.06270       79.00192       57.05114
H         19.97320       81.43867       60.58316
H         20.71724       79.38677       59.40867
N         14.69100       82.72431       58.27907
C         13.76879       82.19365       59.28059
C         12.80680       81.16799       58.68309
O         12.65405       80.10490       59.27083
C         13.05704       83.44627       59.83038
C         13.15785       84.44492       58.69355
C         14.56598       84.16847       58.18227
H         14.30098       81.69955       60.12393
H         12.03869       83.28221       60.24629
H         13.69159       83.86636       60.64269
H         12.42371       84.18217       57.91177
H         12.96751       85.50273       58.97332
H         14.69075       84.60781       57.18504
H         15.30395       84.62340       58.87992
N         12.12914       81.40458       57.52703
C         11.13367       80.48660       56.97343
C         11.75053       79.20327       56.41692
O         11.00017       78.28980       56.10415
C         10.33127       81.20135       55.86317
C          9.61491       82.46173       56.40329
C          8.97460       83.30457       55.33570
O          8.98541       82.96682       54.16464
O          8.40470       84.47535       55.67749
H         12.30950       82.28500       57.03407
H         10.42569       80.21533       57.78885
H          9.57398       80.51441       55.42434
H         11.04696       81.49223       55.06617
H         10.33558       83.12959       56.91085
H          8.84920       82.15939       57.14987
N         13.09575       79.07184       56.23542
C         13.73923       77.88301       55.71430
H         14.48808       77.52085       56.45038
H         13.02041       77.06349       55.50894
H         14.27117       78.13755       54.77353
H         13.71007       79.85812       56.44998
Ca         7.90248       86.03985       52.45790
O         10.80764       85.74721       51.91357
H         11.48651       86.44787       51.74628
H         11.20323       84.92240       51.53719
O         10.04763       87.54654       54.29876
H         10.85596       88.09798       54.44769
H          9.56873       88.00743       53.56494

Ca 1.0



