%chk=holoCaM-CaMKII.loop2.water2.frame5.chk
%nprocshared=20
%mem=10GB
%nosave
#b3lyp/svp scf=(tight,noincore,xqc) Test 
#IOP(5/87=12) Density=Current Pop=(MK,readradii) iop(6/33=2) iop(6/42=6)

holoCaM-CaMKII.loop2.water2.frame5 

   -2  1 
C         58.10459       69.09127       27.99663
C         58.05393       69.94366       26.75871
O         58.03452       71.16042       26.87312
H         59.02081       69.33456       28.57579
H         57.21170       69.27852       28.62671
H         58.13757       68.00916       27.74426
N         58.06636       69.36170       25.52937
C         58.11984       70.11477       24.28238
C         56.83444       70.90081       24.03440
O         55.77688       70.28726       23.98455
C         58.33001       69.13168       23.10907
C         58.66246       69.82088       21.82036
O         58.72321       69.17238       20.78932
O         58.97569       71.12958       21.80171
H         58.10694       68.33113       25.48370
H         59.00384       70.78841       24.33081
H         57.41027       68.51924       22.98231
H         59.17317       68.44122       23.32599
N         56.85879       72.25022       23.81679
C         55.66925       73.03419       23.48318
C         55.76062       73.73054       22.11806
O         54.76691       74.32645       21.72558
C         55.42849       74.07343       24.58279
H         57.75809       72.73991       23.88543
H         54.77704       72.37255       23.44255
H         56.28612       74.77769       24.64700
H         54.50324       74.65410       24.37796
H         55.30868       73.56687       25.56416
N         56.89664       73.73130       21.35264
C         57.01077       74.42899       20.06243
C         57.46442       73.52705       18.90748
O         57.56375       74.02384       17.79380
C         57.94382       75.64946       20.21290
C         59.35565       75.32408       20.60037
O         60.13832       76.23299       20.82620
O         59.76952       74.05455       20.74070
H         57.73240       73.26953       21.72235
H         56.02186       74.84112       19.76707
H         57.51971       76.30442       21.00529
H         57.96586       76.23031       19.26578
N         57.72823       72.19974       19.07683
C         58.07252       71.28994       17.99187
C         59.41586       71.50189       17.30432
O         59.67778       70.74433       16.38015
H         57.58817       71.77833       19.99935
H         57.26918       71.34257       17.22537
H         58.08069       70.25345       18.39204
N         60.31152       72.47810       17.64417
C         61.54572       72.68744       16.87565
C         62.53421       71.51712       16.94256
O         63.40933       71.45851       16.08976
C         62.24539       74.01348       17.25820
C         62.75268       74.06524       18.67719
N         63.40211       75.16029       19.12995
O         62.58275       73.12002       19.42568
H         60.08272       73.12668       18.40724
H         61.23507       72.79603       15.81196
H         61.53081       74.85190       17.11162
H         63.10844       74.17334       16.57592
H         63.55729       75.97293       18.51681
H         63.75523       75.19113       20.09714
N         62.47996       70.57293       17.92744
C         63.34141       69.39550       17.97352
C         64.28476       69.34189       19.16611
O         64.89749       68.30001       19.34924
H         61.77653       70.67295       18.66929
H         63.96420       69.29968       17.05780
H         62.67532       68.50703       18.01002
N         64.51089       70.41629       19.97894
C         65.45919       70.40434       21.09708
C         64.79466       70.84656       22.39703
O         63.64532       71.26087       22.38323
C         66.65641       71.33776       20.76675
C         67.46462       70.81224       19.57762
O         66.20910       72.63729       20.47034
H         64.04159       71.30142       19.76755
H         65.85229       69.37851       21.26850
H         67.37202       71.37250       21.61971
H         66.01596       73.08517       21.33454
H         68.32557       71.48643       19.38042
H         67.86126       69.79895       19.80338
H         66.84133       70.76131       18.66048
N         65.50256       70.83249       23.56536
C         64.99420       71.38333       24.81662
C         65.50773       72.79941       24.93400
O         66.69725       73.03419       24.76662
C         65.39988       70.52988       26.05777
C         64.80201       69.10476       25.95225
C         64.92499       71.22662       27.35676
C         65.15287       68.19531       27.13496
H         66.48953       70.53521       23.54115
H         63.88142       71.41800       24.80417
H         66.50942       70.45503       26.09797
H         65.18765       68.62244       25.02910
H         63.69545       69.16430       25.88004
H         65.25144       70.68009       28.26207
H         65.37829       72.23200       27.45363
H         63.81838       71.32980       27.36964
H         64.73571       67.18218       26.95918
H         66.25375       68.11680       27.25363
H         64.70518       68.56608       28.08009
N         64.64408       73.79115       25.27622
C         65.01625       75.19024       25.40561
C         65.06742       75.54768       26.87050
O         64.76332       74.70463       27.70491
C         63.97130       76.06035       24.68319
C         63.77225       75.65408       23.25519
O         63.74256       76.49147       22.36806
O         63.49241       74.36726       22.98374
H         63.67055       73.53702       25.49677
H         66.02606       75.36692       24.97445
H         64.21910       77.14130       24.74323
H         62.99286       75.90507       25.19260
N         65.49446       76.77142       27.27287
C         65.63517       77.10696       28.67850
C         64.30865       77.08972       29.43846
O         64.29044       76.47858       30.49476
C         66.39734       78.42675       28.88065
C         66.73761       78.61964       30.34369
C         66.27332       79.74485       31.04125
C         67.51557       77.66222       31.02968
C         66.57211       79.90413       32.39882
C         67.80162       77.82081       32.38593
C         67.33032       78.94090       33.07107
H         65.78831       77.45660       26.55749
H         66.28374       76.31683       29.11375
H         65.80107       79.27415       28.48102
H         67.35231       78.38303       28.31239
H         65.67849       80.49546       30.53696
H         67.89739       76.78401       30.52511
H         66.21151       80.77300       32.93204
H         68.38785       77.07221       32.90429
H         67.55432       79.06138       34.12260
N         63.15707       77.69824       29.00144
C         61.90302       77.62553       29.74018
C         61.39658       76.19021       29.81848
O         60.99372       75.77737       30.89866
C         60.98581       78.60518       28.99338
C         61.48759       78.54340       27.57226
C         63.00263       78.45584       27.77161
H         61.99903       78.01659       30.77821
H         59.89496       78.45372       29.14325
H         61.23777       79.63166       29.34707
H         61.11594       77.59621       27.13318
H         61.15437       79.36710       26.90563
H         63.41042       77.96130       26.87332
H         63.46277       79.45673       27.91461
N         61.43688       75.35115       28.74424
C         60.97759       73.96218       28.79774
C         61.81438       73.11694       29.75277
O         61.36640       72.04437       30.13274
C         61.05558       73.31205       27.40139
C         60.18109       74.03068       26.35848
C         60.39532       73.50520       24.96827
O         59.80171       74.02429       24.03860
O         61.26100       72.50336       24.72196
H         61.83001       75.70723       27.86415
H         59.91970       73.96096       29.14429
H         60.74210       72.24537       27.45371
H         62.11726       73.34561       27.08309
H         60.42443       75.11020       26.32080
H         59.11083       73.92347       26.63762
N         63.06330       73.50364       30.13252
C         63.89886       72.71666       31.01037
H         64.88122       73.22116       31.14213
H         63.41528       72.61628       32.00398
H         64.07548       71.71278       30.57035
H         63.45586       74.37356       29.76606
Ca        61.68224       73.85613       21.83321
O         61.62813       69.90492       21.13709
H         62.29582       69.28887       21.52681
H         61.19812       69.36620       20.42985
O         61.58602       69.69977       24.14819
H         61.92764       68.77895       24.02673
H         61.36581       69.76088       25.11133

Ca 1.0



