%chk=holoCaM.loop3.water3.frame430.chk
%nprocshared=20
%mem=10GB
%nosave
#b3lyp/svp scf=(tight,noincore,xqc) Test 
#IOP(5/87=12) Density=Current Pop=(MK,readradii) iop(6/33=2) iop(6/42=6)

holoCaM.loop3.water3.frame430 

   0  1 
C        100.45229      -12.54334       51.42315
C        101.27514      -13.77750       51.60882
O        101.08309      -14.73819       50.87664
H         99.38625      -12.78533       51.61074
H        100.76432      -11.74702       52.13227
H        100.57863      -12.16622       50.38831
N        102.19629      -13.82942       52.60582
C        103.02321      -14.98379       52.87421
C        102.53143      -15.60967       54.17137
O        103.11517      -15.39492       55.22397
C        104.50026      -14.53567       52.90564
C        105.33704      -15.74715       53.00610
O        105.36818      -16.55113       51.92787
O        105.58525      -16.18311       54.11134
H        102.30009      -13.01998       53.23695
H        102.91566      -15.75169       52.07229
H        104.68831      -13.84449       53.75515
H        104.78157      -14.01913       51.96688
N        101.37726      -16.33385       54.15707
C        100.72603      -16.84953       55.35751
C        101.55052      -17.90608       56.08769
O        101.63326      -17.84017       57.30626
C         99.29186      -17.33610       55.04473
C         99.19839      -18.62518       54.21663
C         97.72899      -18.97719       53.93924
C         97.55755      -20.33828       53.24599
N         98.18272      -20.37925       51.92335
H        100.90726      -16.46363       53.24776
H        100.57011      -15.98851       56.04580
H         98.76160      -16.51343       54.51223
H         98.76250      -17.50513       56.00828
H         99.65671      -19.45590       54.79294
H         99.74165      -18.49801       53.25842
H         97.26037      -18.17881       53.32213
H         97.18318      -19.02947       54.90721
H         96.46761      -20.53239       53.13553
H         97.98383      -21.14157       53.88736
H         97.81142      -19.60717       51.32377
H         99.22171      -20.30538       52.00285
H         97.95694      -21.29542       51.47318
N        102.16865      -18.92342       55.41522
C        102.94932      -19.97220       56.08929
C        104.25571      -19.44457       56.71344
O        104.92478      -20.21009       57.39313
C        103.16923      -21.19435       55.15213
C        103.81286      -20.80138       53.86818
O        103.19057      -20.88919       52.82184
O        104.95914      -20.11799       53.91015
H        102.06182      -18.95271       54.39048
H        102.33552      -20.36979       56.92542
H        102.17129      -21.62821       54.91735
H        103.77442      -21.97695       55.65427
N        104.64961      -18.14427       56.57646
C        105.76597      -17.53698       57.28339
C        107.12159      -18.07402       56.89880
O        107.85698      -18.46648       57.79425
H        104.09405      -17.50801       55.99797
H        105.60815      -17.63924       58.38175
H        105.77513      -16.44838       57.05759
N        107.54398      -18.07819       55.59763
C        108.88681      -18.47872       55.19746
C        109.65624      -17.36051       54.46947
O        110.84960      -17.53291       54.26512
C        108.80567      -19.79900       54.39428
C        108.64319      -19.63227       52.90415
N        109.52368      -20.21288       52.05489
O        107.71727      -18.98224       52.45759
H        106.88340      -17.82730       54.86442
H        109.45932      -18.70963       56.12004
H        107.96079      -20.40628       54.79279
H        109.73189      -20.37988       54.57106
H        110.30076      -20.78723       52.41232
H        109.42185      -20.10849       51.03564
N        109.04829      -16.21242       54.02197
C        109.74073      -15.11458       53.35364
C        109.44387      -15.01612       51.85969
O        109.94201      -14.08947       51.24029
H        108.03774      -16.08902       54.14160
H        110.84340      -15.22167       53.44760
H        109.46310      -14.16425       53.86080
N        108.75190      -15.99351       51.19604
C        108.66925      -16.08205       49.73613
C        107.26275      -16.40336       49.27138
O        106.67125      -17.32563       49.80349
C        109.56516      -17.23130       49.22541
C        111.02453      -17.00956       49.53410
C        111.51531      -17.16319       50.84106
C        111.91197      -16.64729       48.50858
C        112.86430      -16.93852       51.12233
C        113.26086      -16.41966       48.79072
C        113.74104      -16.56129       50.10069
O        115.03894      -16.33898       50.38751
H        108.39227      -16.78734       51.73192
H        109.03476      -15.15366       49.24399
H        109.43249      -17.27124       48.12058
H        109.24453      -18.21640       49.62595
H        110.85511      -17.46145       51.64229
H        111.55770      -16.52558       47.49242
H        113.22642      -17.05646       52.13591
H        113.92938      -16.12977       47.99056
H        115.67512      -16.06980       49.70980
N        106.72173      -15.76867       48.18816
C        105.42746      -16.15182       47.61472
C        105.59358      -16.69766       46.19649
O        106.61452      -16.47439       45.56842
C        104.42056      -14.96403       47.65245
C        104.96637      -13.71764       46.90164
C        104.07317      -14.62961       49.11241
C        103.93221      -12.60551       46.72470
H        107.27106      -15.03474       47.72125
H        104.98851      -16.98787       48.19921
H        103.48455      -15.29720       47.15289
H        105.29082      -14.01519       45.88244
H        105.84549      -13.29772       47.43735
H        103.29592      -13.84302       49.17842
H        103.66844      -15.52854       49.62255
H        104.97802      -14.28698       49.65539
H        103.05895      -12.98673       46.15459
H        103.59187      -12.19976       47.69804
H        104.38949      -11.76952       46.15352
N        104.58276      -17.43545       45.64352
C        104.58904      -17.96855       44.28162
C        103.49175      -17.30168       43.46350
O        102.72689      -16.52223       44.00677
C        104.38341      -19.49972       44.31965
O        103.15885      -19.81554       44.92618
H        103.75867      -17.62654       46.21820
H        105.55623      -17.74851       43.78476
H        105.20879      -19.96649       44.90020
H        104.39586      -19.90714       43.28343
H        103.07417      -20.80435       44.90475
N        103.37076      -17.55897       42.12431
C        102.31303      -16.96929       41.29935
C        100.92950      -17.53616       41.61713
O         99.95757      -17.05841       41.04661
C        102.62080      -17.18787       39.81452
H        104.07108      -18.16774       41.67768
H        102.30598      -15.86999       41.47310
H        103.60598      -16.73790       39.56715
H        102.64661      -18.27172       39.57435
H        101.85087      -16.69416       39.18283
N        100.75928      -18.53435       42.52841
C         99.46982      -19.06052       42.94597
C         99.08184      -18.40159       44.25361
O         97.96207      -17.92331       44.36515
C         99.55420      -20.58433       43.06578
H        101.58015      -18.91443       43.01333
H         98.67630      -18.83260       42.19875
H         99.82267      -21.02047       42.07894
H        100.32544      -20.88403       43.80743
H         98.57349      -21.00180       43.37759
N        100.00042      -18.24055       45.25032
C         99.73582      -17.46805       46.46258
C         99.37518      -16.02490       46.12826
O         98.76500      -15.37453       46.96507
C        100.97410      -17.47232       47.38453
C        101.30003      -18.88713       47.89494
C        102.61836      -18.93568       48.60882
O        103.50094      -19.67092       48.19703
O        102.83434      -18.18779       49.70684
H        100.94065      -18.63035       45.11232
H         98.87777      -17.93265       46.99506
H        100.82599      -16.80494       48.26155
H        101.81250      -17.05648       46.79702
H        101.34690      -19.60713       47.05242
H        100.49388      -19.21812       48.58233
N         99.73905      -15.44989       44.94297
C         99.38304      -14.09881       44.56234
H         98.69775      -13.62017       45.29210
H        100.30284      -13.48395       44.47415
H         98.87410      -14.12329       43.57514
H        100.30763      -15.97792       44.26830
Ca       105.08211      -18.72461       52.21325
O        103.69281      -21.73535       50.20812
H        103.95953      -22.40424       50.88719
H        103.28469      -22.26966       49.48266
O        106.51779      -19.86113       48.72888
H        106.03810      -19.42997       47.97843
H        107.37515      -20.15709       48.33404
O        106.65324      -21.76740       51.20472
H        106.46111      -22.16788       50.31975
H        106.64250      -22.53413       51.83079

Ca 1.0



