%chk=holoCaM-CaMKII.loop3.water2.frame477.chk
%nprocshared=20
%mem=10GB
%nosave
#b3lyp/svp scf=(tight,noincore,xqc) Test 
#IOP(5/87=12) Density=Current Pop=(MK,readradii) iop(6/33=2) iop(6/42=6)

holoCaM-CaMKII.loop3.water2.frame477 

   0  1 
C         78.23032       71.52628       58.30104
C         78.64082       71.17095       56.90565
O         79.70813       71.59406       56.48426
H         77.25006       71.07575       58.56151
H         78.99447       71.15278       59.01461
H         78.15248       72.62954       58.39174
N         77.84905       70.37863       56.12791
C         78.22851       69.98956       54.77753
C         78.29036       71.22957       53.89881
O         77.25647       71.82954       53.63789
C         77.23967       68.93452       54.24535
C         77.66797       68.28246       52.96962
O         76.99013       67.37611       52.51621
O         78.82406       68.61606       52.36621
H         76.96897       70.01619       56.52659
H         79.22362       69.50578       54.84623
H         76.22995       69.38195       54.12063
H         77.16751       68.11908       54.99820
N         79.49484       71.73262       53.50632
C         79.62898       73.02002       52.83640
C         79.19450       72.91876       51.38775
O         78.34496       73.68574       50.95830
C         81.08400       73.53886       52.93505
C         81.14305       75.05168       52.63994
C         82.54624       75.65904       52.77832
C         83.47558       75.26584       51.62245
N         84.77280       75.93003       51.75085
H         80.34806       71.24317       53.80612
H         79.00538       73.75607       53.39354
H         81.75525       72.94661       52.27736
H         81.43172       73.41501       53.98407
H         80.49818       75.55505       53.39487
H         80.73510       75.28546       51.63353
H         82.99034       75.37866       53.75939
H         82.43586       76.76549       52.75663
H         83.00491       75.57862       50.66319
H         83.62636       74.16600       51.59883
H         84.64747       76.96874       51.77502
H         85.25327       75.61340       52.62399
H         85.36641       75.68451       50.92604
N         79.73460       71.95509       50.58741
C         79.39089       71.77192       49.17918
C         78.32780       70.69575       48.97091
O         77.99595       70.42180       47.82549
C         80.66862       71.52570       48.33745
C         81.43940       70.27014       48.66490
O         81.04530       69.43725       49.64378
O         82.44695       70.00430       48.02977
H         80.38183       71.28511       51.02601
H         78.93854       72.70690       48.78084
H         81.35203       72.39271       48.46680
H         80.38199       71.47690       47.26420
N         77.68075       70.10918       50.02088
C         76.55973       69.19422       49.85552
C         76.90458       67.82985       49.28035
O         75.97447       67.06731       49.05858
H         77.90758       70.40154       50.97932
H         75.80371       69.68491       49.20465
H         76.07268       69.03371       50.83822
N         78.18110       67.44318       48.98681
C         78.47207       66.18930       48.28816
C         78.14812       64.91772       49.07072
O         78.13277       63.86614       48.44523
C         79.94248       66.13126       47.82681
C         80.89512       65.92918       48.98227
N         81.68866       64.83714       49.03504
O         80.94140       66.74529       49.88748
H         78.95006       68.09798       49.17008
H         77.84358       66.20191       47.36876
H         80.20046       67.06298       47.27830
H         80.05284       65.28628       47.11212
H         81.66705       64.12377       48.29179
H         82.32562       64.70696       49.83198
N         77.93104       64.91120       50.42045
C         77.60520       63.69430       51.15784
C         78.57892       63.32825       52.26763
O         78.33937       62.30182       52.88813
H         77.97990       65.79451       50.94142
H         77.54903       62.81892       50.47646
H         76.59921       63.82093       51.61190
N         79.65876       64.09307       52.61644
C         80.54190       63.73098       53.73232
C         81.31080       64.96269       54.26540
O         81.99809       65.63376       53.25232
C         81.42028       62.48613       53.40033
C         82.43260       62.63662       52.28073
C         83.59053       63.42117       52.44006
C         82.25245       61.93781       51.07308
C         84.52946       63.52528       51.40982
C         83.19539       62.03905       50.04447
C         84.33608       62.83775       50.20878
O         85.25053       62.94988       49.22436
H         79.81535       64.98112       52.12305
H         79.89559       63.44604       54.59268
H         80.72724       61.65799       53.14599
H         81.96385       62.14900       54.30874
H         83.78522       63.94433       53.36435
H         81.38099       61.31284       50.92397
H         85.41217       64.13736       51.54892
H         83.03733       61.49778       49.12031
H         85.15294       62.49349       48.37653
N         82.21407       64.63045       55.37529
C         82.76208       65.80739       56.08133
C         84.24690       65.55163       56.26065
O         84.60165       64.51455       56.80646
C         82.09698       66.04799       57.47975
C         80.54476       66.10316       57.46512
C         82.67537       67.31966       58.14031
C         79.92399       67.23434       56.64812
H         81.79822       63.93947       56.04235
H         82.62320       66.73046       55.47440
H         82.35416       65.18565       58.13498
H         80.18947       66.20946       58.51427
H         80.14239       65.14114       57.08637
H         83.77404       67.23781       58.27052
H         82.47719       68.22027       57.52207
H         82.23203       67.47320       59.14663
H         80.22904       68.22616       57.03789
H         80.20079       67.14511       55.58128
H         78.81802       67.17034       56.72375
N         85.17233       66.46437       55.85089
C         86.61280       66.26003       55.98426
C         87.19080       67.17657       57.04771
O         86.44995       67.93854       57.64788
C         87.28670       66.46611       54.61774
O         87.10000       67.78436       54.17877
H         84.84167       67.35763       55.45643
H         86.82915       65.22120       56.31658
H         86.83480       65.75534       53.88945
H         88.37468       66.25278       54.69357
H         87.49897       67.83261       53.27144
N         88.51176       67.11595       57.37281
C         89.12041       67.92462       58.42620
C         89.04604       69.40825       58.11368
O         88.53167       70.16069       58.92820
C         90.58506       67.51934       58.62490
H         89.10426       66.43503       56.87204
H         88.59581       67.72210       59.38770
H         90.64337       66.44378       58.89685
H         91.17564       67.68358       57.69872
H         91.03587       68.11182       59.44977
N         89.54647       69.89344       56.94174
C         89.54253       71.30970       56.57897
C         88.14691       71.89071       56.64101
O         87.95666       72.92050       57.27365
C         90.10910       71.49019       55.16536
H         89.93896       69.21606       56.26981
H         90.19921       71.87381       57.27834
H         90.12788       72.56793       54.89499
H         91.14825       71.10080       55.12021
H         89.49177       70.94506       54.41893
N         87.11346       71.24678       56.03693
C         85.73285       71.71626       56.06082
C         85.26599       71.97470       57.48654
O         84.85971       73.09062       57.78046
C         84.85344       70.67528       55.34214
C         83.37605       71.05825       55.27508
C         82.62863       70.03068       54.48278
O         81.68261       69.28656       55.07574
O         82.87239       69.86568       53.29809
H         87.32391       70.35762       55.55557
H         85.66924       72.67273       55.49428
H         84.94327       69.69365       55.85663
H         85.24255       70.56127       54.30536
H         83.25095       72.04993       54.79314
H         82.96032       71.10425       56.30520
N         85.32492       71.00143       58.43207
C         84.92808       71.22559       59.80438
H         83.85289       71.49743       59.85042
H         85.09071       70.30155       60.39966
H         85.53954       72.04104       60.24710
H         85.68433       70.07799       58.17706
Ca        80.58410       67.34668       52.87430
O         83.80807       67.10432       49.98184
H         84.77409       66.97658       49.81018
H         83.64263       68.06134       49.79039
O         84.26646       67.39142       52.86515
H         84.95192       67.97433       52.45291
H         84.65829       66.48324       52.83536

Ca 1.0



