%chk=holoCaM-CaMKII.loop1.water2.frame195.chk
%nprocshared=20
%mem=10GB
%nosave
#b3lyp/svp scf=(tight,noincore,xqc) Test 
#IOP(5/87=12) Density=Current Pop=(MK,readradii) iop(6/33=2) iop(6/42=6)

holoCaM-CaMKII.loop1.water2.frame195 

   0  1 
C         14.69056       69.29670       32.34304
C         13.76387       69.75771       33.42576
O         14.09526       70.71357       34.11224
H         15.66000       68.98865       32.78203
H         14.25870       68.44794       31.77260
H         14.85893       70.13789       31.63524
N         12.55066       69.16345       33.60097
C         11.55648       69.71382       34.50785
C         11.94906       69.54194       35.97463
O         11.91423       68.42755       36.47817
C         10.18360       69.07677       34.22247
C          9.06258       69.86839       34.80215
O          9.29781       71.01521       35.45601
O          7.91664       69.54204       34.56165
H         12.28845       68.38219       32.97919
H         11.47932       70.79421       34.24430
H         10.15092       68.01907       34.56382
H         10.00923       69.09046       33.12349
N         12.37157       70.61212       36.70737
C         12.80704       70.51984       38.10009
C         11.67198       70.31514       39.10738
O         11.99190       70.02068       40.25076
C         13.64432       71.77299       38.49245
C         12.82637       73.07998       38.57827
C         13.71940       74.31368       38.77465
C         12.88502       75.60701       38.76633
N         13.73288       76.78362       38.95971
H         12.51083       71.49465       36.20593
H         13.49808       69.64954       38.15892
H         14.44802       71.88940       37.73109
H         14.13308       71.60814       39.47656
H         12.08589       73.01474       39.40287
H         12.26997       73.22469       37.65101
H         14.46006       74.36870       37.94572
H         14.26607       74.22395       39.73692
H         12.12327       75.56718       39.57544
H         12.35040       75.70255       37.79508
H         14.44406       76.84798       38.19534
H         13.13776       77.64352       38.93827
H         14.21371       76.72903       39.88674
N         10.35502       70.55760       38.80918
C          9.29831       70.54228       39.83192
C          8.04999       69.72648       39.46638
O          7.13511       69.69592       40.27881
C          8.95843       71.98905       40.26098
C          8.38822       72.88349       39.20019
O          8.08158       74.15634       39.51359
O          8.19906       72.48232       38.06620
H         10.11787       70.88988       37.86610
H          9.68484       70.07229       40.76282
H          9.88985       72.46470       40.63890
H          8.23712       71.95506       41.10637
N          7.96131       68.97142       38.33261
C          6.88692       68.00241       38.11951
C          5.57381       68.52866       37.55927
O          4.69614       67.70431       37.34195
H          8.76761       68.93313       37.69335
H          6.70076       67.44281       39.06299
H          7.24707       67.25814       37.37699
N          5.35562       69.83768       37.24303
C          4.13232       70.29242       36.55899
C          4.11646       69.93853       35.05716
O          3.19486       70.36008       34.37237
C          3.83873       71.79047       36.85485
C          4.98867       72.68933       36.56016
O          5.55536       73.27923       37.46552
O          5.47377       72.76539       35.32276
H          6.09628       70.52122       37.45295
H          3.24803       69.78249       37.00161
H          3.61353       71.88212       37.93938
H          2.94160       72.13191       36.29436
N          5.03881       69.09911       34.49383
C          4.99087       68.63298       33.11329
C          5.39015       69.65308       32.06626
O          5.38535       69.28047       30.89954
H          5.75947       68.66891       35.07956
H          3.97809       68.22967       32.89438
H          5.71021       67.79057       33.00566
N          5.75710       70.93169       32.37125
C          6.16335       71.91151       31.36211
C          7.56174       72.44419       31.65582
O          8.14055       72.07168       32.66696
C          5.11757       73.04712       31.27626
C          3.72937       72.51074       30.87749
O          5.05146       73.76653       32.48136
H          5.74512       71.23353       33.35372
H          6.21124       71.43284       30.35834
H          5.42287       73.75756       30.47941
H          4.47710       73.26059       33.11200
H          3.34516       71.79314       31.63489
H          3.00846       73.35104       30.79885
H          3.78246       71.99232       29.89697
N          8.20502       73.26128       30.77210
C          9.58644       73.71482       30.95197
C          9.66751       75.23327       30.74298
O          9.19180       75.71715       29.72364
C         10.52448       72.92688       29.98269
C         10.33853       71.39107       30.18110
C         11.99561       73.31526       30.23801
C         11.13597       70.52460       29.20488
H          7.73086       73.49395       29.88432
H          9.94674       73.47098       31.97648
H         10.25334       73.18374       28.93528
H          9.27474       71.12278       30.01497
H         10.60757       71.10440       31.22273
H         12.29098       73.02758       31.26931
H         12.68078       72.81230       29.52814
H         12.15007       74.40462       30.11085
H         10.85780       70.77368       28.15910
H         12.22845       70.64651       29.34101
H         10.89597       69.45496       29.38740
N         10.31684       76.03316       31.64244
C         10.48000       77.48325       31.52139
C         11.90770       77.80889       31.10558
O         12.72406       76.90197       31.00554
C         10.18199       78.20910       32.87371
C          8.80704       77.90063       33.47060
O         11.18612       77.95183       33.82628
H         10.80133       75.57782       32.41179
H          9.79256       77.86888       30.73625
H         10.20282       79.30424       32.68825
H         11.07922       77.02567       34.15683
H          7.99784       78.18570       32.76933
H          8.73016       76.82159       33.71139
H          8.68154       78.47575       34.41556
N         12.28474       79.09406       30.84271
C         13.65787       79.44595       30.48032
C         14.63056       79.21854       31.63135
O         15.79983       78.98498       31.35935
C         13.77665       80.89445       29.96225
C         13.01379       81.08537       28.64853
O         13.29068       81.80269       30.91882
H         11.56723       79.83412       30.87961
H         13.96770       78.77697       29.64419
H         14.84741       81.10660       29.72556
H         14.07241       82.14968       31.42168
H         13.41107       80.39314       27.87441
H         11.92875       80.89175       28.77709
H         13.14878       82.12572       28.28531
N         14.23088       79.26316       32.93643
C         15.10904       78.88439       34.04508
C         15.47154       77.41933       33.90855
O         16.64959       77.09100       33.87988
C         14.41029       79.11708       35.41157
C         14.33457       80.60294       35.81946
C         15.71412       81.14040       36.25484
C         15.65805       82.60760       36.69511
N         16.97251       83.05516       37.16115
H         13.25785       79.53171       33.14583
H         16.04715       79.47327       34.01499
H         14.95299       78.58316       36.22318
H         13.38705       78.68434       35.36960
H         13.65996       80.68377       36.70024
H         13.90090       81.20891       34.99480
H         16.45013       81.06228       35.43109
H         16.07631       80.52733       37.11035
H         14.91985       82.72898       37.51843
H         15.33691       83.23629       35.83541
H         17.68560       82.94062       36.40426
H         16.92096       84.06490       37.42654
H         17.26303       82.50134       38.00018
N         14.48919       76.48472       33.79445
C         14.73515       75.05015       33.65402
C         15.49933       74.70419       32.37702
O         15.92233       73.56289       32.25239
C         13.38242       74.29908       33.67960
C         12.69589       74.43835       35.05191
C         11.25097       74.00239       35.05570
O         10.42170       74.59747       34.39919
O         10.82561       73.02614       35.86033
H         13.51709       76.82203       33.81189
H         15.35613       74.71614       34.51552
H         13.51357       73.21776       33.46259
H         12.75801       74.73440       32.87806
H         12.69905       75.49056       35.39570
H         13.29564       73.84636       35.77187
N         15.72475       75.61710       31.38980
C         16.50634       75.31325       30.21151
H         17.54711       75.05978       30.50671
H         16.05520       74.46427       29.65761
H         16.53975       76.20063       29.54243
H         15.33210       76.56039       31.45890
Ca         7.66147       72.50734       35.29711
O          9.02629       75.52583       36.87189
H          9.68327       76.26465       36.81922
H          8.28207       75.89144       37.41223
O          6.76891       75.50202       34.74339
H          6.62360       76.42668       35.06472
H          5.87172       75.20252       34.45752

Ca 1.0



