%chk=holoCaM.loop1.water2.frame50.chk
%nprocshared=20
%mem=10GB
%nosave
#b3lyp/svp scf=(tight,noincore,xqc) Test 
#IOP(5/87=12) Density=Current Pop=(MK,readradii) iop(6/33=2) iop(6/42=6)

holoCaM.loop1.water2.frame50 

   0  1 
C         67.76950       99.08359       14.19804
C         67.21189      100.28947       13.50732
O         66.83194      101.23384       14.18474
H         68.66221       99.37301       14.78932
H         66.99720       98.66336       14.87606
H         68.06111       98.29934       13.46815
N         67.12317      100.32778       12.14883
C         66.55436      101.45990       11.43266
C         65.09710      101.60853       11.83913
O         64.33833      100.66039       11.69093
C         66.69604      101.23987        9.91933
C         66.31816      102.43632        9.10383
O         66.39170      102.36121        7.89406
O         65.93954      103.59505        9.67448
H         67.46943       99.51934       11.60875
H         67.14290      102.36895       11.69670
H         66.07903      100.36913        9.60781
H         67.76083      101.01941        9.68535
N         64.66366      102.75998       12.41905
C         63.35095      102.91859       13.03729
C         62.48618      103.95783       12.31668
O         61.32616      104.09477       12.67758
C         63.61160      103.22798       14.53472
C         62.43162      103.17251       15.51705
C         61.72814      101.80380       15.50650
C         60.74449      101.61134       16.67353
N         61.43620      101.42070       17.95300
H         65.32987      103.53375       12.48793
H         62.80519      101.95616       12.96618
H         64.10117      104.22041       14.62767
H         64.34080      102.46985       14.90136
H         61.69652      103.98034       15.31739
H         62.87471      103.36120       16.51744
H         62.46999      100.97603       15.54103
H         61.16302      101.72661       14.55393
H         60.15015      100.69364       16.46924
H         60.04012      102.46984       16.73433
H         60.72767      101.24096       18.70042
H         62.06856      100.58841       17.89515
H         61.98997      102.26328       18.22140
N         62.96594      104.69057       11.26421
C         62.16097      105.60423       10.44468
C         62.19262      105.23073        8.95609
O         61.55512      105.92044        8.17253
C         62.59974      107.06821       10.68060
C         64.04236      107.37535       10.37998
O         64.49678      108.46289       10.69493
O         64.86184      106.44320        9.86317
H         63.95582      104.59294       11.01858
H         61.09471      105.55575       10.75770
H         62.43754      107.27988       11.76093
H         61.95114      107.76230       10.10316
N         62.86585      104.13437        8.49548
C         62.84907      103.69046        7.10916
C         63.56146      104.62355        6.15447
O         62.96415      105.04258        5.17360
H         63.36791      103.52726        9.15600
H         61.79943      103.51898        6.78556
H         63.38049      102.71538        7.05021
N         64.86734      104.94484        6.36147
C         65.68980      105.71817        5.43062
C         66.95448      104.94905        5.02896
O         67.84206      105.54068        4.42915
C         66.00656      107.10952        6.03009
C         66.74948      107.14458        7.33826
O         67.03506      108.33652        7.89406
O         67.08780      106.12501        7.91139
H         65.30849      104.60408        7.22590
H         65.13556      105.93438        4.49060
H         65.04273      107.64069        6.18243
H         66.59500      107.68970        5.28594
N         67.09022      103.61379        5.28882
C         68.26806      102.82533        4.96056
C         69.50177      103.13365        5.79839
O         70.50847      102.48512        5.56585
H         66.29206      103.10080        5.67973
H         68.50434      102.94592        3.88062
H         68.03313      101.75173        5.13485
N         69.51609      104.09939        6.76892
C         70.71202      104.44263        7.54433
C         70.44531      104.37740        9.05100
O         69.30790      104.21734        9.46046
C         71.21539      105.84351        7.12059
C         71.63414      105.87720        5.63994
O         70.24953      106.83133        7.38135
H         68.67064      104.64357        6.94091
H         71.52191      103.71258        7.33172
H         72.12264      106.09325        7.71129
H         69.54918      106.78088        6.67963
H         72.43717      105.13446        5.45014
H         70.77389      105.64701        4.97498
H         72.01365      106.88726        5.37849
N         71.49911      104.42796        9.93022
C         71.36635      104.28309       11.38405
C         72.12064      105.40897       12.09945
O         73.33155      105.50203       11.97181
C         71.88210      102.86601       11.80119
C         70.88980      101.79558       11.25984
C         72.04751      102.72772       13.32741
C         71.28317      100.34668       11.54579
H         72.45133      104.48715        9.54356
H         70.29849      104.34264       11.68725
H         72.88933      102.70947       11.35422
H         70.80585      101.89413       10.15785
H         69.88192      101.97085       11.69942
H         72.76294      103.47757       13.72085
H         71.07567      102.84069       13.83861
H         72.48137      101.74340       13.59302
H         71.30109      100.13565       12.63398
H         70.52457       99.67114       11.09576
H         72.27423      100.12139       11.10080
N         71.43922      106.29347       12.88902
C         72.06473      107.37871       13.65165
C         72.71823      106.86199       14.93684
O         72.63148      105.67963       15.23411
C         71.00152      108.45987       14.01712
C         70.37259      109.08436       12.77196
O         69.99423      107.89729       14.81409
H         70.41813      106.20981       12.92193
H         72.83191      107.87565       13.01789
H         71.49935      109.28242       14.57664
H         69.50760      108.64755       15.24532
H         69.82109      108.31709       12.19796
H         69.65376      109.87635       13.07146
H         71.15331      109.54131       12.12905
N         73.35469      107.73556       15.77402
C         73.89723      107.38516       17.09077
C         72.80449      106.85059       18.00253
O         73.02236      105.84484       18.66176
C         74.57019      108.60899       17.76615
C         75.81971      109.06062       17.00007
O         73.65767      109.67305       17.87076
H         73.42350      108.71781       15.47281
H         74.67953      106.59995       16.98474
H         74.89623      108.29327       18.78596
H         74.02972      110.30994       18.53534
H         76.30061      109.90791       17.53302
H         76.55162      108.22679       16.94348
H         75.56973      109.39051       15.97123
N         71.59227      107.46751       18.06609
C         70.46410      106.96968       18.85259
C         70.09925      105.56257       18.40925
O         70.03520      104.66494       19.23746
C         69.23789      107.89848       18.66165
C         69.47242      109.29472       19.26257
C         68.33558      110.26027       18.90451
C         68.57216      111.63583       19.54493
N         67.55368      112.59703       19.12408
H         71.45340      108.30427       17.47998
H         70.72349      106.95171       19.93471
H         68.34336      107.45846       19.15673
H         69.01614      107.98718       17.57593
H         70.41485      109.73165       18.87214
H         69.56254      109.19728       20.36674
H         67.35953      109.85528       19.25057
H         68.30297      110.37291       17.79789
H         69.57294      112.02156       19.24791
H         68.55133      111.53255       20.65293
H         66.60034      112.25625       19.38508
H         67.73099      113.51163       19.59918
H         67.60734      112.74142       18.08924
N         69.83911      105.31315       17.09784
C         69.39649      104.02177       16.57530
C         70.47356      102.94096       16.66356
O         70.17205      101.79662       16.35274
C         68.89737      104.19444       15.11746
C         67.74213      105.21529       15.06197
C         67.22287      105.47765       13.68650
O         68.03644      105.82920       12.67386
O         66.01998      105.47368       13.49991
H         69.93039      106.10404       16.45158
H         68.52651      103.68313       17.18097
H         68.54890      103.21892       14.71473
H         69.73526      104.55740       14.48706
H         68.07074      106.19774       15.43946
H         66.90690      104.86891       15.71076
N         71.74104      103.21194       17.08520
C         72.75678      102.19291       17.22998
H         73.70006      102.65328       17.59838
H         72.42775      101.43440       17.97171
H         72.95591      101.70602       16.25358
H         72.01006      104.16958       17.31917
Ca        66.89944      106.28865       10.79245
O         67.18145      108.83229       12.34049
H         67.14511      109.54221       11.65128
H         66.26214      108.78387       12.70314
O         69.47141      108.05244        9.72955
H         70.45493      108.15268        9.66803
H         69.14003      108.96817        9.90655

Ca 1.0



