%chk=holoCaM.loop2.water2.frame85.chk
%nprocshared=20
%mem=10GB
%nosave
#b3lyp/svp scf=(tight,noincore,xqc) Test 
#IOP(5/87=12) Density=Current Pop=(MK,readradii) iop(6/33=2) iop(6/42=6)

holoCaM.loop2.water2.frame85 

   -2  1 
C         -4.44803       26.37813       97.87209
C         -4.73535       27.02862       96.55170
O         -4.01054       26.79836       95.59842
H         -3.55412       25.72237       97.80779
H         -4.28513       27.15138       98.64960
H         -5.31981       25.75079       98.16179
N         -5.82991       27.82298       96.42193
C         -6.29792       28.36064       95.14732
C         -5.37477       29.41576       94.53013
O         -4.52649       29.97283       95.21198
C         -7.71351       28.93340       95.37164
C         -8.34548       29.50442       94.15003
O         -8.73253       30.79363       94.14649
O         -8.51135       28.81007       93.16240
H         -6.41397       27.95823       97.26271
H         -6.37523       27.50632       94.44203
H         -7.66465       29.73076       96.14454
H         -8.37024       28.11982       95.74916
N         -5.50566       29.70749       93.19806
C         -4.72910       30.70136       92.46532
C         -5.54086       31.45887       91.38914
O         -5.00072       32.42689       90.87094
C         -3.53601       30.00950       91.79466
H         -6.13441       29.10990       92.66822
H         -4.33183       31.44708       93.18879
H         -2.91375       29.49603       92.55863
H         -3.88814       29.25270       91.06016
H         -2.89521       30.74838       91.26691
N         -6.78118       31.06284       90.94140
C         -7.47741       31.70809       89.81873
C         -9.01491       31.76058       89.96090
O         -9.65268       32.30947       89.07297
C         -7.05548       31.03672       88.48958
C         -7.42797       29.58333       88.35871
O         -8.07664       28.93605       89.34248
O         -7.13092       28.97778       87.34177
H         -7.17404       30.18404       91.28145
H         -7.13931       32.76582       89.74421
H         -5.95098       31.11809       88.38703
H         -7.51213       31.59275       87.64162
N         -9.67762       31.25699       91.04525
C        -11.11817       31.37646       91.26852
C        -12.01619       30.49746       90.40119
O        -13.22519       30.59684       90.55433
H         -9.13620       30.84697       91.80477
H        -11.40814       32.44361       91.15620
H        -11.33123       31.08723       92.32097
N        -11.52269       29.62148       89.48279
C        -12.35359       28.80854       88.58098
C        -13.15898       27.66204       89.22698
O        -13.83139       26.95439       88.48888
C        -11.46881       28.23887       87.45433
C        -10.37866       27.30443       87.90739
N         -9.55150       26.77787       86.98284
O        -10.22038       27.03285       89.08908
H        -10.50393       29.59290       89.35955
H        -13.07733       29.48765       88.07710
H        -10.98425       29.08929       86.92671
H        -12.10660       27.70475       86.71770
H         -9.66712       26.99519       85.98451
H         -8.78612       26.16286       87.25877
N        -13.17633       27.42333       90.56699
C        -13.99155       26.38664       91.19586
C        -13.40540       24.97772       91.20260
O        -14.02726       24.12502       91.82125
H        -12.69674       28.07965       91.18635
H        -15.01675       26.39062       90.76440
H        -14.09560       26.65636       92.26890
N        -12.22822       24.64606       90.59609
C        -11.59837       23.32370       90.71830
C        -10.20011       23.44540       91.31141
O         -9.71973       24.55075       91.52446
C        -11.51680       22.61803       89.33420
C        -12.88230       22.14559       88.84522
O        -10.95163       23.46919       88.37180
H        -11.73645       25.36061       90.04626
H        -12.17015       22.66689       91.41035
H        -10.91708       21.68090       89.40481
H         -9.96951       23.40060       88.47429
H        -13.57876       22.99727       88.71438
H        -12.76319       21.61792       87.87327
H        -13.31115       21.42274       89.57338
N         -9.46988       22.31592       91.54903
C         -8.06557       22.31456       91.93316
C         -7.27837       21.93283       90.69445
O         -7.54642       20.89879       90.09642
C         -7.79171       21.37688       93.15156
C         -8.49471       21.94340       94.41513
C         -6.27085       21.23669       93.39530
C         -8.33020       21.08772       95.67514
H         -9.89638       21.39916       91.34420
H         -7.74339       23.32895       92.23097
H         -8.19201       20.36362       92.92566
H         -9.58290       22.03885       94.21441
H         -8.09204       22.95342       94.63998
H         -5.81663       22.22097       93.63464
H         -6.05412       20.52803       94.21905
H         -5.76312       20.81669       92.50262
H         -7.26908       21.02361       95.99183
H         -8.88713       21.55888       96.51298
H         -8.73124       20.06697       95.50806
N         -6.27914       22.74953       90.25959
C         -5.49742       22.53340       89.05244
C         -4.11065       22.06555       89.42231
O         -3.85935       21.85391       90.59483
C         -5.47532       23.82751       88.21668
C         -6.86194       24.14626       87.72646
O         -7.81286       24.57946       88.57199
O         -7.12332       24.05253       86.53922
H         -6.02554       23.56542       90.83165
H         -5.93580       21.71882       88.43294
H         -4.82738       23.67412       87.33064
H         -5.05041       24.67628       88.79999
N         -3.17996       21.78508       88.47073
C         -1.90900       21.14832       88.79002
C         -1.01820       21.99168       89.71086
O         -0.65915       21.46219       90.75226
C         -1.21604       20.64571       87.50243
C          0.00118       19.79171       87.77475
C         -0.08658       18.65375       88.60146
C          1.23410       20.10745       87.17943
C          1.03842       17.86223       88.83836
C          2.35469       19.30238       87.40856
C          2.25779       18.18390       88.24063
H         -3.42280       21.93568       87.47931
H         -2.16707       20.22387       89.34962
H         -0.96460       21.48046       86.82319
H         -1.94526       20.00551       86.95893
H         -1.01995       18.37086       89.06857
H          1.32664       20.96706       86.52737
H          0.96091       16.99555       89.48227
H          3.29863       19.54406       86.93851
H          3.12560       17.56311       88.41945
N         -0.62759       23.28466       89.45436
C          0.18755       24.08602       90.37097
C         -0.32301       24.07139       91.79972
O          0.44702       23.84582       92.72263
C          0.06632       25.51157       89.80912
C         -0.04496       25.25016       88.33015
C         -1.00723       24.06333       88.29234
H          1.24147       23.73210       90.32121
H         -0.90442       25.96984       90.10816
H          0.88139       26.19909       90.12247
H         -0.35590       26.12141       87.71536
H          0.95599       24.90483       87.98325
H         -2.06868       24.37711       88.40668
H         -0.85521       23.54872       87.32899
N         -1.64232       24.29149       92.03208
C         -2.26430       24.32979       93.35033
C         -2.05140       23.01839       94.08729
O         -1.57281       23.03570       95.21199
C         -3.77057       24.59687       93.19447
C         -4.07265       25.96609       92.54257
C         -5.53265       26.11284       92.27449
O         -6.31890       25.24104       92.59674
O         -5.97964       27.12649       91.53080
H         -2.24025       24.41573       91.20177
H         -1.83433       25.16070       93.95243
H         -4.27018       24.55613       94.18670
H         -4.20223       23.79110       92.55847
H         -3.57701       26.04574       91.55509
H         -3.71081       26.80916       93.16189
N         -2.37269       21.83706       93.49835
C         -2.20033       20.55460       94.13846
H         -1.13679       20.40984       94.42015
H         -2.84748       20.49169       95.03734
H         -2.49226       19.74498       93.43349
H         -2.73397       21.84436       92.54565
Ca        -7.11581       26.23022       89.87565
O         -8.91032       25.96282       93.91525
H         -9.64671       25.91828       94.57427
H         -8.34205       25.18467       94.13038
O        -10.81991       27.55903       92.58063
H        -11.43758       27.42067       93.34097
H        -10.85672       28.53422       92.41107

Ca 1.0



