%chk=holoCaM.loop4.water3.frame51.chk
%nprocshared=20
%mem=10GB
%nosave
#b3lyp/svp scf=(tight,noincore,xqc) Test 
#IOP(5/87=12) Density=Current Pop=(MK,readradii) iop(6/33=2) iop(6/42=6)

holoCaM.loop4.water3.frame51 

   -3  1 
C        106.20052       85.44439       23.34844
C        106.59265       86.77447       23.91204
O        107.10416       86.79169       25.02231
H        107.10834       84.80547       23.28055
H        105.47073       84.95241       24.02439
H        105.75992       85.54258       22.33639
N        106.39525       87.93561       23.21469
C        106.86407       89.22501       23.71389
C        106.43004       90.39312       22.82829
O        106.74376       90.39579       21.64500
C        108.40604       89.21248       23.79991
C        108.90663       90.48632       24.38701
O        108.47707       90.86035       25.60606
O        109.68254       91.19092       23.76171
H        105.91760       87.89317       22.30141
H        106.44664       89.37741       24.73304
H        108.84400       89.05135       22.79007
H        108.76651       88.40021       24.45839
N        105.76485       91.45833       23.37191
C        105.40365       92.67194       22.63605
C        106.07111       93.93660       23.20988
O        105.82879       94.99923       22.65837
C        103.84879       92.85478       22.59760
C        103.23576       93.01640       24.01657
C        103.19879       91.69325       21.82499
C        101.74787       93.37411       24.01976
H        105.52481       91.41697       24.37158
H        105.75315       92.59852       21.58226
H        103.63673       93.78529       22.02456
H        103.76164       93.83353       24.55299
H        103.36242       92.08385       24.59394
H        103.35136       90.72868       22.35291
H        102.11108       91.85918       21.68973
H        103.64108       91.61982       20.80882
H        101.57954       94.32710       23.47535
H        101.13183       92.57212       23.56625
H        101.40552       93.50222       25.06912
N        106.88316       93.91885       24.31656
C        107.32812       95.15557       24.98468
C        108.71105       95.05568       25.67155
O        109.15985       96.05998       26.20939
C        106.22398       95.60751       25.97066
C        106.11954       94.65631       27.11811
O        105.99964       93.34205       26.88233
O        106.28537       95.05119       28.26073
H        107.02256       93.02295       24.79022
H        107.41889       95.95947       24.22271
H        105.25115       95.65876       25.43717
H        106.45035       96.62362       26.36258
N        109.45628       93.91255       25.66266
C        110.82411       93.78805       26.15866
C        111.05882       93.90359       27.66104
O        112.22260       93.85504       28.03486
H        109.09115       93.09975       25.17244
H        111.44210       94.55792       25.64783
H        111.21963       92.79441       25.85253
N        110.06841       94.08618       28.58222
C        110.37203       94.37454       29.99428
C        111.05293       93.24721       30.78478
O        111.58970       93.54757       31.84232
C        109.11885       94.88497       30.73998
C        107.99786       93.88692       30.80931
O        108.14546       92.65768       30.28920
O        106.92317       94.21584       31.28421
H        109.09328       94.13534       28.25476
H        111.08832       95.22625       29.98402
H        108.74038       95.77626       30.19330
H        109.38898       95.20088       31.76998
N        111.04557       91.94426       30.38197
C        111.72129       90.86529       31.10527
C        110.76854       89.84696       31.71594
O        111.23697       88.81946       32.18223
H        110.53120       91.69708       29.52917
H        112.36327       91.24857       31.92709
H        112.38613       90.34742       30.38076
N        109.42821       90.07733       31.77629
C        108.43350       89.15535       32.31209
C        107.45362       88.78228       31.20859
O        107.58010       89.27702       30.09789
C        107.69993       89.82522       33.49709
C        108.63958       90.05192       34.69207
C        107.92530       90.72871       35.83583
N        108.37111       91.90863       36.32851
O        106.94127       90.20041       36.33256
H        109.07437       90.96459       31.42963
H        108.90768       88.21247       32.66242
H        106.86575       89.17821       33.84322
H        107.26727       90.79498       33.16215
H        109.50856       90.66741       34.37633
H        109.01927       89.06886       35.04591
H        109.20580       92.36666       35.93450
H        107.88509       92.36429       37.11528
N        106.46271       87.87494       31.44780
C        105.53067       87.40874       30.42488
C        104.10248       87.77502       30.81658
O        103.68724       87.50684       31.93428
C        105.76181       85.89812       30.13249
C        105.53485       84.97519       31.33853
C        104.90854       85.43209       28.94147
H        106.38390       87.47383       32.39260
H        105.74929       87.91209       29.46094
H        106.82779       85.78688       29.82837
H        105.77206       83.92699       31.05483
H        106.20824       85.24238       32.17768
H        104.48164       85.01581       31.68248
H        105.12155       86.05655       28.04717
H        105.15300       84.37959       28.68283
H        103.82570       85.49844       29.17598
N        103.29601       88.39711       29.90840
C        101.94881       88.89410       30.17899
C        100.91059       87.91893       29.64554
O        101.27274       86.91449       29.05654
C        101.83013       90.27539       29.47929
C        100.57973       91.07766       29.72291
N        100.29224       91.54806       30.95647
O         99.84243       91.34886       28.78660
H        103.65624       88.52185       28.95531
H        101.79794       88.99597       31.27568
H        101.94379       90.11309       28.38672
H        102.66178       90.90962       29.81445
H        100.92121       91.36025       31.74990
H         99.45239       92.12560       31.10973
N         99.58428       88.14695       29.85037
C         98.51515       87.29177       29.33006
C         98.21589       87.56133       27.85207
O         97.38715       86.85784       27.29244
C         97.26710       87.41053       30.23824
C         96.75282       88.82553       30.35468
C         96.02912       89.42087       29.31163
C         97.02330       89.57135       31.51581
C         95.59634       90.74610       29.42226
C         96.60526       90.89832       31.61753
C         95.89325       91.49215       30.57226
O         95.50373       92.77746       30.68268
H         99.33322       88.95556       30.42965
H         98.83691       86.22920       29.41691
H         97.59495       87.06295       31.24344
H         96.45090       86.72543       29.92105
H         95.79891       88.86234       28.41354
H         97.58747       89.13464       32.33115
H         95.04029       91.19427       28.60887
H         96.84438       91.46640       32.50747
H         95.01889       93.22957       29.97803
N         98.88412       88.52272       27.14625
C         98.74280       88.74894       25.70817
C        100.01229       88.30247       24.98063
O        100.10343       88.48146       23.77405
C         98.48130       90.24771       25.44416
C         97.18960       90.73494       26.10958
C         96.97110       92.20109       25.87303
O         96.83951       92.63131       24.73826
O         96.90850       93.04888       26.91803
H         99.59497       89.09239       27.62188
H         97.90126       88.15721       25.28565
H         98.40263       90.42019       24.34782
H         99.33933       90.84249       25.83113
H         97.26340       90.56583       27.20008
H         96.32002       90.16660       25.71368
N        101.01803       87.67897       25.65755
C        102.27694       87.22678       25.08866
C        102.33975       85.71079       25.16358
O        102.63501       85.08585       24.15553
C        103.43325       87.86110       25.88196
C        103.38678       89.39419       25.79928
C        104.43413       90.05894       26.64246
O        105.35936       89.34762       27.31108
O        104.43308       91.27130       26.73853
H        100.90749       87.50729       26.66041
H        102.38343       87.53400       24.02383
H        104.40632       87.50239       25.48857
H        103.35051       87.54746       26.94302
H        102.40098       89.75288       26.15888
H        103.51010       89.71449       24.74288
N        102.02292       85.04979       26.31587
C        102.01359       83.61003       26.45172
H        100.97422       83.27086       26.65323
H        102.38511       83.09709       25.54211
H        102.65149       83.32328       27.31350
H        101.73073       85.57713       27.14320
Ca       107.04346       92.16369       28.43452
O        110.10662       90.27924       27.62558
H        110.42923       89.56566       28.22979
H        110.84810       90.42978       26.98785
O        108.01587       88.30429       27.40415
H        108.80842       87.89182       26.97912
H        107.44785       87.53840       27.66837
O        104.78261       91.86835       29.81032
H        105.30430       92.19339       30.58382
H        104.47496       92.68698       29.34464

Ca 1.0



