%chk=holoCaM-CaMKII.loop1.water2.frame14.chk
%nprocshared=20
%mem=10GB
%nosave
#b3lyp/svp scf=(tight,noincore,xqc) Test 
#IOP(5/87=12) Density=Current Pop=(MK,readradii) iop(6/33=2) iop(6/42=6)

holoCaM-CaMKII.loop1.water2.frame14 

   0  1 
C         45.85423       67.90517        9.32169
C         46.30655       67.80964        7.89171
O         45.49134       67.57653        7.01266
H         44.75985       67.74029        9.41089
H         46.37948       67.13583        9.92804
H         46.10162       68.90913        9.72718
N         47.62308       67.98034        7.59655
C         48.19193       67.87894        6.25228
C         47.97773       66.46730        5.71566
O         48.37109       65.51856        6.37977
C         49.69796       68.22363        6.34488
C         50.53117       68.22796        5.08340
O         51.73128       68.04501        5.20131
O         50.06843       68.57876        3.86495
H         48.25493       68.19066        8.38603
H         47.70068       68.63213        5.60373
H         50.16025       67.48074        7.03239
H         49.82463       69.21784        6.82608
N         47.35638       66.25940        4.51930
C         47.06221       64.93655        3.96881
C         47.89759       64.60119        2.73857
O         47.76665       63.46823        2.29276
C         45.55329       64.83627        3.60209
C         44.58943       64.75117        4.79779
C         44.66581       63.36794        5.47339
C         43.59809       63.14567        6.55524
N         43.78371       64.02251        7.71017
H         47.08320       67.08161        3.97193
H         47.32515       64.14417        4.69853
H         45.35428       63.94362        2.96909
H         45.28467       65.71397        2.98287
H         43.55593       64.86653        4.40091
H         44.77897       65.58015        5.50781
H         45.67052       63.19437        5.90902
H         44.48897       62.59545        4.69186
H         43.67332       62.08827        6.89501
H         42.58141       63.29066        6.12576
H         44.74167       63.89083        8.10863
H         43.63973       65.02140        7.44189
H         43.07872       63.76943        8.43987
N         48.75354       65.47681        2.12030
C         49.51345       65.08213        0.92502
C         51.01456       65.38229        0.96635
O         51.70749       64.87119        0.09693
C         48.83071       65.61401       -0.35000
C         48.72988       67.11003       -0.46596
O         49.21396       67.92751        0.48638
O         48.18624       67.59203       -1.44597
H         48.80448       66.44762        2.45522
H         49.47200       63.97540        0.82577
H         47.79762       65.20176       -0.37872
H         49.37313       65.22491       -1.23889
N         51.60234       66.16723        1.91557
C         53.04915       66.33450        2.03118
C         53.54167       67.73526        1.73091
O         54.70461       68.00154        2.00169
H         51.02119       66.64345        2.61411
H         53.60903       65.64376        1.36506
H         53.32449       66.07431        3.07574
N         52.75381       68.67147        1.12927
C         53.22981       70.01844        0.80435
C         53.42343       70.91173        2.03397
O         53.83616       72.05073        1.86068
C         52.31737       70.67235       -0.25820
C         50.87449       70.84033        0.12287
O         50.09881       71.29160       -0.70268
O         50.41445       70.47671        1.33482
H         51.81177       68.39164        0.82519
H         54.21948       69.92882        0.30125
H         52.34668       70.02964       -1.16552
H         52.72863       71.66686       -0.53926
N         53.19643       70.46317        3.30441
C         53.45912       71.25442        4.49600
C         52.46018       72.36394        4.75345
O         52.63088       73.04973        5.75070
H         52.89491       69.49530        3.45795
H         54.49259       71.66314        4.44704
H         53.40872       70.58341        5.38114
N         51.38842       72.59319        3.93920
C         50.39226       73.63239        4.19568
C         49.01097       73.00742        4.36177
O         48.88172       71.80157        4.24223
C         50.41629       74.67246        3.05252
C         51.79399       75.33306        2.92742
O         50.08510       74.05576        1.83640
H         51.25573       72.01382        3.10268
H         50.61921       74.16602        5.14468
H         49.67223       75.46681        3.29283
H         49.73038       74.76588        1.24003
H         52.56909       74.58226        2.66343
H         51.77009       76.10302        2.12795
H         52.07669       75.82336        3.88295
N         47.93497       73.78054        4.68663
C         46.58512       73.26172        4.91394
C         45.60680       73.97771        3.99057
O         45.59182       75.20040        3.98220
C         46.19446       73.47920        6.41008
C         47.14468       72.66286        7.32896
C         44.72273       73.08022        6.66368
C         46.94767       72.93616        8.82214
H         48.08416       74.79054        4.82713
H         46.52708       72.16733        4.72084
H         46.30378       74.56117        6.64681
H         48.19831       72.92694        7.10023
H         47.01362       71.57439        7.13602
H         44.42115       73.27497        7.71095
H         44.03753       73.69026        6.04225
H         44.55840       72.00616        6.43169
H         47.68623       72.34524        9.40382
H         47.10971       74.01390        9.03626
H         45.93919       72.63802        9.17035
N         44.68592       73.26889        3.26741
C         43.61579       73.90314        2.49215
C         42.29385       73.72431        3.21869
O         42.25791       73.04283        4.22713
C         43.51974       73.30518        1.06662
C         44.82941       73.44067        0.29895
O         43.16969       71.94764        1.14560
H         44.67390       72.24292        3.35427
H         43.79788       74.99701        2.41506
H         42.72889       73.86232        0.51278
H         42.76392       71.69847        0.27431
H         44.71235       73.02655       -0.72540
H         45.13608       74.50433        0.22509
H         45.61093       72.86136        0.81992
N         41.16123       74.34009        2.78014
C         39.87349       74.19101        3.46157
C         39.34085       72.76932        3.36719
O         38.68208       72.33025        4.30015
C         38.82583       75.18892        2.92759
C         39.23820       76.63267        3.25259
O         38.66642       75.01922        1.54240
H         41.22922       74.95542        1.95638
H         40.01335       74.42694        4.54205
H         37.85958       74.98491        3.44577
H         37.88435       75.56764        1.27335
H         39.34370       76.75739        4.35251
H         40.20197       76.89843        2.77153
H         38.45867       77.33909        2.90007
N         39.60804       71.98162        2.28670
C         39.19389       70.58214        2.19716
C         39.79281       69.81397        3.35399
O         39.08568       69.10510        4.05582
C         39.70515       69.91946        0.88620
C         38.92749       70.27309       -0.39263
C         38.97481       71.74672       -0.80378
C         38.19387       71.96149       -2.10692
N         38.19153       73.37207       -2.48926
H         40.17991       72.37774        1.52704
H         38.08632       70.48429        2.23309
H         39.58073       68.81730        0.99032
H         40.79247       70.11108        0.74852
H         37.86817       69.96407       -0.25823
H         39.36004       69.66576       -1.21951
H         40.03195       72.06257       -0.94749
H         38.50251       72.36714       -0.01549
H         37.14311       71.62222       -1.96608
H         38.65003       71.35761       -2.92339
H         37.63400       73.48627       -3.36635
H         37.75283       73.94702       -1.73339
H         39.16957       73.69973       -2.66108
N         41.12638       69.90189        3.57055
C         41.85335       69.10935        4.54717
C         41.38907       69.42701        5.95881
O         40.97940       68.51540        6.66400
C         43.37113       69.30195        4.34092
C         43.75820       68.92524        2.88539
C         45.22555       68.94185        2.66913
O         45.95953       70.00682        3.01339
O         45.77857       67.96462        2.19690
H         41.64723       70.55530        2.97120
H         41.65975       68.03090        4.34903
H         43.91174       68.64168        5.05257
H         43.66571       70.35515        4.54708
H         43.32998       69.63123        2.15496
H         43.37552       67.91003        2.64080
N         41.37197       70.70523        6.42228
C         40.86734       71.05509        7.73227
H         39.81086       70.72422        7.83253
H         41.48570       70.57871        8.52048
H         40.89925       72.15822        7.86729
H         41.69208       71.46333        5.81529
Ca        48.09440       69.42599        3.24717
O         48.01466       72.30378        0.68457
H         47.91445       72.98020       -0.03257
H         47.83048       72.79348        1.52413
O         46.12710       70.22234       -0.18465
H         45.23027       70.30356       -0.59528
H         46.60748       69.57928       -0.76245

Ca 1.0



