%chk=holoCaM-CaMKII.loop2.water2.frame43.chk
%nprocshared=20
%mem=10GB
%nosave
#b3lyp/svp scf=(tight,noincore,xqc) Test 
#IOP(5/87=12) Density=Current Pop=(MK,readradii) iop(6/33=2) iop(6/42=6)

holoCaM-CaMKII.loop2.water2.frame43 

   -2  1 
C          8.25853       85.83553        8.73463
C          6.95325       86.56351        8.86392
O          6.30622       86.82003        7.86241
H          9.07934       86.44958        9.15788
H          8.19735       84.87659        9.29421
H          8.48232       85.60553        7.67129
N          6.48881       86.89868       10.09550
C          5.17293       87.48244       10.32964
C          5.03507       88.87574        9.71794
O          5.84890       89.73344       10.03134
C          4.91328       87.55542       11.85035
C          3.47917       87.84153       12.18343
O          3.10872       87.97275       13.47049
O          2.63582       87.89764       11.30441
H          7.07596       86.65459       10.90898
H          4.42287       86.78751        9.90023
H          5.57277       88.32674       12.30397
H          5.14971       86.57640       12.31924
N          4.00017       89.17967        8.87340
C          3.79597       90.49748        8.27986
C          2.47308       91.15734        8.68326
O          2.33522       92.33862        8.39548
C          3.85499       90.37258        6.75255
H          3.32644       88.44863        8.63531
H          4.60900       91.18184        8.60445
H          3.74588       91.36646        6.26840
H          4.82625       89.93375        6.44017
H          3.03746       89.71057        6.38931
N          1.44017       90.48210        9.28187
C          0.15512       91.11867        9.60634
C         -0.34469       90.83329       11.02833
O         -1.41501       91.31931       11.36806
C         -0.90890       90.75198        8.54435
C         -1.26828       89.29594        8.43477
O         -2.10755       88.94623        7.62092
O         -0.68422       88.37086        9.21122
H          1.52851       89.46951        9.42925
H          0.25477       92.22420        9.53564
H         -0.53951       91.08954        7.55166
H         -1.83967       91.31923        8.76586
N          0.36904       90.09510       11.92647
C         -0.05945       89.86460       13.30093
C         -1.28495       88.97703       13.47608
O         -1.71884       88.84693       14.61225
H          1.29531       89.75348       11.66399
H         -0.25447       90.85154       13.77344
H          0.76935       89.38429       13.86483
N         -1.90500       88.33649       12.44023
C         -3.13294       87.55261       12.61139
C         -2.97794       86.24147       13.40954
O         -3.97180       85.54109       13.54846
C         -3.81470       87.27419       11.24894
C         -3.11718       86.30104       10.33909
N         -3.75614       85.86338        9.23285
O         -2.00285       85.87959       10.60031
H         -1.54154       88.47038       11.49042
H         -3.86062       88.19623       13.15364
H         -3.97820       88.22703       10.69893
H         -4.81574       86.84351       11.46777
H         -4.70197       86.19850        8.99954
H         -3.32300       85.15772        8.62996
N         -1.80311       85.85042       13.98593
C         -1.67398       84.65936       14.81853
C         -1.39203       83.36850       14.06390
O         -1.24275       82.35312       14.72905
H         -0.99492       86.47661       13.95373
H         -2.57170       84.55179       15.46712
H         -0.80806       84.80872       15.49834
N         -1.29143       83.31085       12.70424
C         -1.00442       82.08161       11.95834
C          0.20947       82.25300       11.04824
O          0.76849       83.33741       10.97634
C         -2.24412       81.70033       11.10332
C         -3.44916       81.36193       11.98051
O         -2.59228       82.74831       10.23363
H         -1.44540       84.16739       12.16294
H         -0.78456       81.23701       12.64798
H         -2.04492       80.77672       10.51403
H         -1.98348       82.69380        9.45112
H         -4.30540       81.06346       11.33866
H         -3.20338       80.51131       12.65221
H         -3.75367       82.23499       12.59418
N          0.61472       81.21593       10.25735
C          1.60310       81.33678        9.18981
C          0.81936       81.28418        7.89140
O          0.03568       80.35799        7.72304
C          2.66369       80.19422        9.23327
C          3.36939       80.11906       10.61048
C          3.69346       80.40234        8.09664
C          4.34905       78.94329       10.72423
H          0.11382       80.31741       10.33028
H          2.13960       82.30483        9.25988
H          2.14064       79.22587        9.06717
H          2.59998       79.97294       11.39824
H          3.90955       81.06743       10.82192
H          4.25558       81.34965        8.24844
H          4.41473       79.56426        8.03603
H          3.19588       80.44654        7.10681
H          5.20608       79.05316       10.02932
H          4.76437       78.90023       11.75251
H          3.82894       77.98413       10.51330
N          0.97518       82.23279        6.92396
C          0.15728       82.25272        5.71269
C          0.95030       81.73646        4.54471
O          2.11869       81.41931        4.71160
C         -0.36699       83.66795        5.39599
C         -0.81173       84.39758        6.61390
O         -1.97717       84.69528        6.79064
O          0.16424       84.90406        7.38054
H          1.71339       82.94105        7.03155
H         -0.72184       81.58605        5.84936
H         -1.18158       83.60368        4.64354
H          0.44948       84.29129        4.96894
N          0.37254       81.59128        3.32196
C          1.11604       81.05300        2.19842
C          2.26579       81.98489        1.80922
O          3.38683       81.49947        1.76302
C          0.19403       80.71871        1.00357
C          0.87430       79.76283        0.05781
C          1.24015       80.15643       -1.23822
C          1.13911       78.44608        0.47905
C          1.87113       79.24650       -2.09384
C          1.76098       77.54025       -0.37981
C          2.12965       77.94021       -1.66539
H         -0.62644       81.82137        3.20609
H          1.53176       80.07942        2.54245
H         -0.12963       81.62748        0.47249
H         -0.72858       80.21109        1.36111
H          1.04743       81.16515       -1.58131
H          0.85390       78.11773        1.47170
H          2.15972       79.55318       -3.09004
H          1.95461       76.52872       -0.04631
H          2.61398       77.23625       -2.32867
N          2.09987       83.33010        1.55653
C          3.19181       84.24577        1.23258
C          4.36889       84.14643        2.18194
O          5.49713       84.04293        1.72159
C          2.55527       85.63860        1.36012
C          1.14085       85.37106        0.92210
C          0.84414       84.05906        1.63849
H          3.51154       84.06106        0.18219
H          2.48987       85.94021        2.43108
H          3.08797       86.44074        0.80575
H          0.41514       86.18583        1.13127
H          1.15973       85.17783       -0.17508
H          0.59956       84.22540        2.70524
H         -0.01025       83.59485        1.12371
N          4.16525       84.15698        3.53048
C          5.24433       84.09217        4.51075
C          6.07938       82.84289        4.29525
O          7.27153       82.96078        4.04755
C          4.68151       84.08840        5.95009
C          3.90959       85.37008        6.32137
C          3.30084       85.27719        7.69870
O          2.60270       86.31268        8.19285
O          3.38548       84.25481        8.35750
H          3.19118       84.19776        3.86494
H          5.89751       84.98630        4.39146
H          5.52508       83.97870        6.66797
H          4.00535       83.21430        6.06794
H          3.07308       85.54498        5.61465
H          4.58571       86.24373        6.25637
N          5.51319       81.60812        4.36434
C          6.26655       80.39392        4.15169
H          7.07854       80.31428        4.90454
H          5.59608       79.51383        4.25508
H          6.69958       80.39223        3.12915
H          4.51149       81.52230        4.56851
Ca         0.65664       85.96700        9.26859
O          0.85795       85.79198       12.38403
H          1.05123       85.29317       13.21741
H          0.81154       86.73920       12.66436
O          3.30777       84.57302       11.52336
H          4.06469       84.52973       10.88871
H          3.62669       84.08881       12.32525

Ca 1.0



