%chk=holoCaM.loop3.water2.frame49.chk
%nprocshared=20
%mem=10GB
%nosave
#b3lyp/svp scf=(tight,noincore,xqc) Test 
#IOP(5/87=12) Density=Current Pop=(MK,readradii) iop(6/33=2) iop(6/42=6)

holoCaM.loop3.water2.frame49 

   0  1 
C         84.73393       72.99232       36.31784
C         84.78590       74.43725       36.69122
O         84.53712       74.76073       37.84456
H         83.96000       72.85106       35.53495
H         85.72141       72.66884       35.93129
H         84.46601       72.37356       37.20114
N         85.10234       75.37630       35.75471
C         85.10365       76.79714       36.06353
C         83.68129       77.19747       36.41039
O         82.83278       77.20844       35.52831
C         85.66285       77.59922       34.86813
C         85.82648       79.05495       35.17081
O         86.61455       79.44733       36.18492
O         85.28623       79.89033       34.47055
H         85.34318       75.06323       34.80132
H         85.78451       76.95410       36.93159
H         85.01299       77.46072       33.97553
H         86.66785       77.20919       34.61338
N         83.32772       77.42352       37.70672
C         81.95240       77.69117       38.10884
C         81.53703       79.03863       37.56538
O         80.56633       79.12438       36.82611
C         81.83639       77.65790       39.65650
C         80.42211       77.92018       40.21280
C         79.41872       76.79227       39.92160
C         78.05153       77.11646       40.54734
N         77.10514       76.01662       40.36185
H         84.05368       77.34376       38.43584
H         81.29823       76.88672       37.70624
H         82.51117       78.42903       40.08412
H         82.18930       76.67272       40.03376
H         80.03912       78.89029       39.82952
H         80.51266       78.00479       41.31820
H         79.80578       75.84658       40.36117
H         79.28994       76.65281       38.82782
H         77.64302       78.03900       40.07753
H         78.17146       77.30427       41.63790
H         77.45044       75.16164       40.85598
H         76.18170       76.28887       40.77098
H         76.97839       75.81166       39.34454
N         82.24520       80.14551       37.92148
C         81.87844       81.49906       37.53199
C         82.00536       81.77802       36.03440
O         81.57510       82.84202       35.61069
C         82.67772       82.51146       38.38103
C         84.16026       82.57719       38.08893
O         84.96556       81.48809       38.14060
O         84.64659       83.66657       37.84408
H         83.03654       80.01504       38.56721
H         80.80918       81.63093       37.81363
H         82.54032       82.24716       39.45187
H         82.24074       83.52468       38.23568
N         82.56466       80.88068       35.16908
C         82.62694       81.08000       33.72677
C         83.51259       82.22387       33.25417
O         83.55548       82.42812       32.04881
H         82.91901       79.98454       35.52673
H         81.59450       81.24397       33.34796
H         83.00663       80.14954       33.25123
N         84.21923       83.03246       34.10104
C         84.94158       84.21101       33.61329
C         86.16614       83.86905       32.77293
O         86.66359       84.75198       32.08846
C         85.30927       85.15775       34.77674
C         86.44036       84.64865       35.63203
N         87.45640       85.46206       35.99420
O         86.43609       83.49360       36.01238
H         84.16480       82.86731       35.11376
H         84.21668       84.77005       32.98065
H         84.40356       85.28332       35.40917
H         85.57989       86.16107       34.38454
H         87.47993       86.44779       35.69747
H         88.21488       85.10967       36.59497
N         86.73885       82.63068       32.81856
C         87.89281       82.24434       32.02469
C         89.12547       81.97269       32.86130
O         90.11204       81.54486       32.27841
H         86.35619       81.91849       33.45360
H         88.16488       83.02716       31.28435
H         87.62368       81.32729       31.45755
N         89.18062       82.24042       34.20290
C         90.38842       82.05662       34.99839
C         90.09675       81.13279       36.21590
O         89.48833       81.87917       37.24901
C         90.91544       83.43744       35.45692
C         91.25566       84.35293       34.30357
C         90.42715       85.44737       34.00633
C         92.40734       84.14086       33.52845
C         90.73508       86.31200       32.95634
C         92.72593       85.01949       32.48450
C         91.88767       86.10794       32.19553
O         92.17930       86.96503       31.19655
H         88.36213       82.64071       34.67607
H         91.17700       81.57526       34.37959
H         91.80883       83.33493       36.11081
H         90.12224       83.91368       36.06763
H         89.53609       85.63144       34.57977
H         93.06761       83.31068       33.74528
H         90.07805       87.14552       32.74020
H         93.62501       84.85722       31.90407
H         92.97411       86.87295       30.65295
N         91.36966       80.58568       36.71639
C         91.23634       79.67253       37.86417
C         92.48986       79.83476       38.70558
O         93.56494       79.46302       38.25349
C         91.03696       78.17689       37.43004
C         89.76836       77.99295       36.55877
C         90.97728       77.26291       38.66566
C         89.55344       76.55335       36.07965
H         91.92896       80.13142       35.95643
H         90.37018       79.97885       38.48531
H         91.91821       77.86535       36.82544
H         89.86484       78.61282       35.64478
H         88.86947       78.32326       37.12271
H         90.10159       77.51608       39.29134
H         90.92606       76.19569       38.38047
H         91.89688       77.35793       39.26622
H         89.33612       75.86777       36.92316
H         88.67990       76.51286       35.40247
H         90.44495       76.19302       35.52439
N         92.42581       80.40645       39.94313
C         93.59405       80.54165       40.81289
C         94.05986       79.17574       41.29851
O         93.42534       78.18378       40.98716
C         93.25666       81.45049       42.01241
O         92.20872       80.90531       42.76350
H         91.51684       80.77080       40.26838
H         94.41268       81.03565       40.24458
H         92.95144       82.44852       41.62627
H         94.15384       81.57744       42.65748
H         92.05554       81.52589       43.52240
N         95.16173       79.04260       42.08476
C         95.56811       77.75536       42.64343
C         94.49643       77.22936       43.58732
O         94.07039       76.09315       43.43663
C         96.89772       77.89235       43.39028
H         95.71621       79.88347       42.30707
H         95.74071       77.02494       41.82008
H         96.81555       78.61088       44.23217
H         97.21156       76.90241       43.78700
H         97.68377       78.24696       42.68922
N         93.99702       78.03328       44.56978
C         92.97648       77.62451       45.53368
C         91.72058       77.10842       44.85509
O         91.29527       76.00385       45.16307
C         92.61414       78.80848       46.44004
H         94.36016       78.99791       44.62590
H         93.39017       76.81891       46.18024
H         91.86096       78.49878       47.19556
H         93.51859       79.16944       46.97411
H         92.19754       79.64969       45.84423
N         91.08973       77.85096       43.90372
C         89.88438       77.42300       43.19697
C         90.09956       76.05327       42.57411
O         89.33478       75.14429       42.86506
C         89.50746       78.48921       42.14081
C         88.21181       78.16312       41.37803
C         87.84435       79.23986       40.38906
O         88.59004       80.35568       40.26298
O         86.84937       79.10556       39.69530
H         91.50957       78.75572       43.65543
H         89.04513       77.35360       43.92526
H         90.34417       78.60775       41.41787
H         89.36770       79.46057       42.66580
H         87.37480       78.05031       42.09938
H         88.33498       77.20731       40.82658
N         91.15923       75.82774       41.75328
C         91.48263       74.53699       41.18248
H         92.48465       74.22294       41.54468
H         90.74772       73.75402       41.46087
H         91.51585       74.61603       40.07785
H         91.79540       76.60336       41.55169
Ca        87.23472       81.65182       37.75972
O         88.78706       84.02787       39.11315
H         89.38493       84.79045       38.91270
H         89.37830       83.34785       39.52397
O         86.54187       82.92619       40.62402
H         85.66027       83.37289       40.67931
H         86.43148       82.08938       41.14096

Ca 1.0



