%chk=holoCaM-CaMKII.loop2.water2.frame369.chk
%nprocshared=20
%mem=10GB
%nosave
#b3lyp/svp scf=(tight,noincore,xqc) Test 
#IOP(5/87=12) Density=Current Pop=(MK,readradii) iop(6/33=2) iop(6/42=6)

holoCaM-CaMKII.loop2.water2.frame369 

   -2  1 
C         27.05366       65.72173       48.70099
C         27.12193       66.56534       49.94482
O         28.10009       66.48071       50.67085
H         26.12693       65.92627       48.12157
H         27.92033       65.95719       48.04695
H         27.07331       64.64523       48.96434
N         26.11511       67.43133       50.23386
C         26.14183       68.37563       51.34534
C         26.15408       67.68546       52.70987
O         25.25627       66.89701       52.97231
C         24.88959       69.27775       51.25595
C         24.94887       70.43849       52.19666
O         26.07192       70.68945       52.88784
O         23.99785       71.19655       52.29204
H         25.31254       67.46427       49.58534
H         27.04097       69.01921       51.22203
H         23.98405       68.66813       51.46657
H         24.79353       69.70060       50.23327
N         27.10581       67.98722       53.64876
C         27.11314       67.42292       55.00116
C         26.99612       68.47696       56.11820
O         26.90588       68.06850       57.26788
C         28.40737       66.62228       55.19328
H         27.85435       68.64725       53.39595
H         26.25747       66.72472       55.12544
H         28.48699       65.82936       54.41940
H         29.29184       67.29113       55.10607
H         28.42782       66.13612       56.19233
N         27.05113       69.82543       55.88283
C         27.09931       70.84414       56.94801
C         26.15510       72.04282       56.73850
O         26.15016       72.91897       57.59222
C         28.56453       71.32834       57.09189
C         29.11294       71.95966       55.84090
O         28.29665       72.19914       54.80188
O         30.31059       72.16751       55.73348
H         27.20133       70.12987       54.92000
H         26.82743       70.38274       57.92255
H         29.17794       70.42574       57.31093
H         28.68131       72.03116       57.94388
N         25.33667       72.16437       55.65142
C         24.41300       73.27849       55.43957
C         25.03550       74.65345       55.17994
O         24.26988       75.59997       55.06646
H         25.30115       71.40079       54.97230
H         23.74968       73.34981       56.32870
H         23.77103       73.04619       54.56230
N         26.38050       74.86583       55.09414
C         26.98488       76.19926       54.99034
C         26.66197       76.99454       53.71800
O         26.84866       78.20295       53.74804
C         28.51904       76.12732       55.18402
C         29.25571       75.31513       54.14220
N         30.60234       75.23214       54.18737
O         28.65101       74.72477       53.26170
H         27.00165       74.06407       55.20448
H         26.58272       76.78814       55.84463
H         28.73773       75.67984       56.17763
H         28.92841       77.16046       55.17629
H         31.13856       75.71521       54.92155
H         31.10938       74.68888       53.47856
N         26.22997       76.40831       52.56579
C         25.87825       77.14840       51.35572
C         26.76302       76.85055       50.15265
O         26.43259       77.33152       49.07733
H         26.12861       75.39317       52.54296
H         25.90797       78.24722       51.52037
H         24.83193       76.88063       51.09807
N         27.91636       76.12775       50.24685
C         28.81381       75.86444       49.11888
C         29.08189       74.37124       48.96701
O         28.61436       73.58373       49.77845
C         30.15475       76.62377       49.34156
C         29.95956       78.13934       49.26802
O         30.71540       76.29735       50.58875
H         28.21018       75.78782       51.16871
H         28.37039       76.21512       48.16072
H         30.88410       76.38920       48.53377
H         31.11658       75.39410       50.50175
H         30.93652       78.65107       49.40603
H         29.56002       78.42274       48.27011
H         29.26030       78.49250       50.05358
N         29.90121       73.92822       47.96838
C         30.38982       72.55837       47.85824
C         31.81933       72.58280       48.35676
O         32.60531       73.38590       47.86934
C         30.32159       72.02580       46.39382
C         28.87095       72.05517       45.85070
C         30.90129       70.59177       46.32979
C         28.77044       71.66929       44.36910
H         30.30634       74.62203       47.32092
H         29.79610       71.87251       48.50117
H         30.94627       72.68781       45.75310
H         28.47177       73.08754       45.94095
H         28.22384       71.37821       46.45011
H         30.29582       69.89705       46.95169
H         30.93722       70.20673       45.29233
H         31.94801       70.56628       46.69515
H         27.71746       71.76119       44.03046
H         29.39982       72.34554       43.75168
H         29.08090       70.62014       44.19097
N         32.22875       71.72154       49.32709
C         33.56322       71.75509       49.90512
C         34.43526       70.68634       49.29570
O         33.96261       69.88603       48.50133
C         33.48480       71.57541       51.43478
C         32.69663       72.66352       52.09710
O         31.52046       72.83136       51.81979
O         33.28452       73.44714       53.02070
H         31.57985       70.99482       49.65230
H         34.05398       72.72645       49.67334
H         34.50706       71.58035       51.86701
H         33.01572       70.59536       51.67323
N         35.76322       70.66597       49.58931
C         36.69491       69.71771       49.00397
C         36.37766       68.28727       49.42479
O         36.28473       67.45844       48.53223
C         38.15196       70.13446       49.30000
C         39.15409       69.21090       48.65432
C         39.17784       69.03693       47.25815
C         40.08296       68.51828       49.44799
C         40.11166       68.17968       46.67125
C         41.01766       67.66550       48.85596
C         41.03151       67.49517       47.46920
H         36.13471       71.39477       50.21870
H         36.59106       69.78325       47.89798
H         38.33908       70.19191       50.38526
H         38.31430       71.15905       48.89951
H         38.47728       69.56199       46.62147
H         40.08518       68.63879       50.52438
H         40.12268       68.04821       45.59705
H         41.73154       67.13731       49.47379
H         41.75591       66.83408       47.01283
N         36.17783       67.89060       50.72310
C         35.80769       66.52779       51.09502
C         34.55052       66.04728       50.37817
O         34.49071       64.89414       49.97758
C         35.56756       66.61688       52.61076
C         36.51711       67.72415       53.01021
C         36.26838       68.73410       51.89901
H         36.66881       65.85472       50.88803
H         34.54238       67.00064       52.81928
H         35.70243       65.65524       53.15179
H         36.38042       68.12135       54.03836
H         37.56116       67.34391       52.90912
H         35.29645       69.25437       52.04729
H         37.09831       69.45583       51.90002
N         33.50835       66.90283       50.17735
C         32.25564       66.53166       49.51469
C         32.45989       66.20012       48.04808
O         31.69589       65.41019       47.51175
C         31.23190       67.67853       49.59506
C         30.93242       68.05872       51.04791
C         30.04636       69.24844       51.16320
O         29.90371       69.77933       52.37702
O         29.52428       69.77784       50.19563
H         33.62481       67.86936       50.51346
H         31.81572       65.65511       50.04089
H         30.28149       67.37798       49.09917
H         31.63944       68.56558       49.06125
H         31.86517       68.34699       51.56701
H         30.49003       67.20547       51.60418
N         33.42524       66.82889       47.32184
C         33.65299       66.61362       45.90937
H         34.68181       66.22354       45.76026
H         32.93106       65.89662       45.46787
H         33.56014       67.58372       45.37661
H         34.03321       67.50912       47.78631
Ca        28.98591       71.75040       52.76617
O         26.13502       73.19197       51.62102
H         25.96200       73.17431       52.59657
H         25.27762       73.48806       51.22412
O         26.84551       71.38168       49.56094
H         27.49276       70.91015       48.98127
H         26.11358       71.64938       48.95108

Ca 1.0



