%chk=holoCaM.loop1.water2.frame93.chk
%nprocshared=20
%mem=10GB
%nosave
#b3lyp/svp scf=(tight,noincore,xqc) Test 
#IOP(5/87=12) Density=Current Pop=(MK,readradii) iop(6/33=2) iop(6/42=6)

holoCaM.loop1.water2.frame93 

   0  1 
C         79.22879       29.19946       11.85563
C         78.61588       29.83050       10.64221
O         77.40105       29.80972       10.50212
H         79.79513       29.96703       12.42557
H         78.44607       28.77180       12.51756
H         79.92225       28.39112       11.54466
N         79.41240       30.44653        9.72686
C         78.87953       31.13620        8.56071
C         78.26305       30.14316        7.58155
O         78.97177       29.30410        7.04333
C         79.99627       31.95158        7.88825
C         79.50408       32.85398        6.79719
O         80.30406       33.56498        6.22086
O         78.19896       32.92548        6.47099
H         80.42884       30.47182        9.90672
H         78.11830       31.86426        8.92443
H         80.77274       31.26512        7.48397
H         80.47201       32.60215        8.65500
N         76.92642       30.17092        7.33741
C         76.23767       29.22845        6.46054
C         76.53039       29.45688        4.98151
O         76.85597       28.49481        4.30007
C         74.70826       29.28415        6.71074
C         74.29135       28.83175        8.13210
C         74.64049       27.35483        8.39053
C         74.11796       26.84732        9.73667
N         74.46848       25.43643        9.91405
H         76.36312       30.85500        7.86218
H         76.56012       28.19663        6.69533
H         74.19054       28.61931        5.98515
H         74.33378       30.31148        6.53062
H         73.18853       28.95115        8.21267
H         74.75856       29.47413        8.90923
H         75.73964       27.21405        8.39202
H         74.19343       26.73579        7.58243
H         73.01181       26.95829        9.77377
H         74.56350       27.44564       10.56231
H         74.09963       25.09830       10.83133
H         74.04675       24.86193        9.14767
H         75.50827       25.31898        9.90298
N         76.37254       30.68128        4.40338
C         76.36830       30.89374        2.95037
C         77.72228       31.25143        2.35025
O         77.92202       30.93351        1.18546
C         75.23183       31.85283        2.52399
C         75.30130       33.22363        3.15456
O         76.30711       33.54545        3.99144
O         74.39984       34.02249        2.95951
H         76.11814       31.45491        5.02305
H         76.10921       29.92116        2.47264
H         74.26958       31.39415        2.84378
H         75.21083       31.95039        1.41671
N         78.70127       31.88816        3.05241
C         80.05825       32.05474        2.54150
C         80.41251       33.48269        2.18688
O         80.89635       33.70813        1.08654
H         78.50728       32.20824        4.01019
H         80.23517       31.42459        1.64207
H         80.75724       31.68624        3.32195
N         80.21812       34.49779        3.06750
C         80.63572       35.87869        2.82986
C         81.49449       36.40543        3.98316
O         81.71672       37.60661        4.05487
C         79.40517       36.75874        2.52944
C         78.29056       36.61487        3.51293
O         77.18967       36.25836        3.12591
O         78.48705       36.87737        4.81289
H         79.73476       34.28994        3.95165
H         81.26570       35.97142        1.91791
H         79.00900       36.46370        1.53243
H         79.70959       37.82500        2.46021
N         82.08757       35.55601        4.87359
C         82.96508       35.98871        5.95035
C         82.26710       36.66764        7.11527
O         82.96458       36.99338        8.06494
H         81.99241       34.54053        4.74089
H         83.76415       36.64508        5.54101
H         83.45939       35.08752        6.37518
N         80.92184       36.91003        7.14029
C         80.24113       37.51838        8.28430
C         79.09650       36.63986        8.77560
O         78.75768       35.65240        8.14012
C         79.74198       38.94182        7.93621
C         80.90871       39.90636        7.66545
O         78.84291       38.91720        6.85605
H         80.35245       36.65813        6.32742
H         80.94676       37.61375        9.13860
H         79.20125       39.36054        8.81177
H         79.37228       38.87581        6.01729
H         80.51348       40.92167        7.45049
H         81.56692       39.96706        8.55830
H         81.51470       39.56952        6.79774
N         78.50001       36.93393        9.96701
C         77.45306       36.13407       10.59760
C         76.26637       37.03356       10.92322
O         76.44996       38.09553       11.50034
C         78.04265       35.42354       11.85203
C         79.11106       34.39505       11.37452
C         76.94037       34.72073       12.66824
C         79.81534       33.62706       12.49059
H         78.85835       37.74029       10.50094
H         77.09916       35.32386        9.92324
H         78.51534       36.18380       12.51254
H         79.90120       34.92424       10.80177
H         78.63486       33.65288       10.69501
H         76.44925       33.93240       12.06737
H         77.35856       34.26310       13.58591
H         76.17404       35.44646       13.01069
H         80.32679       34.33133       13.17833
H         79.10562       32.99142       13.05711
H         80.57276       32.95075       12.03903
N         75.00411       36.62745       10.60457
C         73.79431       37.41844       10.81780
C         72.92133       36.77087       11.88571
O         73.32428       35.77243       12.46135
C         73.02800       37.54247        9.46852
C         73.87473       38.22022        8.38410
O         72.56153       36.29038        9.02150
H         74.88577       35.69140       10.19803
H         74.04637       38.44044       11.17491
H         72.13651       38.18734        9.61340
H         73.30032       35.81472        8.56365
H         74.17976       39.23594        8.70930
H         74.78527       37.62035        8.17182
H         73.28324       38.30388        7.44743
N         71.70307       37.29622       12.21269
C         70.78383       36.65162       13.15702
C         70.17833       35.35068       12.60924
O         69.43555       34.71725       13.34708
C         69.65712       37.62437       13.59198
C         70.22788       38.79555       14.40561
O         68.96048       38.09488       12.46659
H         71.42169       38.18497       11.77389
H         71.34603       36.38827       14.08115
H         68.95571       37.07310       14.26131
H         68.15403       38.56630       12.80382
H         69.40548       39.45893       14.74696
H         70.74846       38.40770       15.30866
H         70.94575       39.39392       13.80832
N         70.47501       34.86062       11.36686
C         69.99634       33.57346       10.86471
C         71.10349       32.52367       10.93107
O         70.83145       31.35536       10.69613
C         69.51679       33.77064        9.40550
C         68.83553       32.56086        8.74937
C         67.58023       31.99752        9.44802
C         66.37315       32.95232        9.57319
N         66.46386       33.87798       10.70785
H         71.12002       35.37813       10.76248
H         69.16632       33.21565       11.50845
H         70.39789       34.04510        8.78257
H         68.84001       34.63851        9.33066
H         69.56968       31.73428        8.65064
H         68.55884       32.85337        7.71299
H         67.82198       31.55450       10.43740
H         67.25236       31.15903        8.79430
H         65.47832       32.31663        9.75366
H         66.20640       33.49902        8.61883
H         66.59164       33.34200       11.59652
H         67.22742       34.57302       10.61370
H         65.56973       34.41526       10.77232
N         72.38433       32.87694       11.23184
C         73.51671       31.97031       11.25308
C         74.19836       31.99057       12.62078
O         75.19730       31.30262       12.78217
C         74.51371       32.43647       10.16843
C         73.84038       32.64768        8.79995
C         74.79800       33.23601        7.81014
O         75.43483       34.38800        8.08511
O         74.97368       32.70009        6.73320
H         72.61054       33.85847       11.39028
H         73.19546       30.93070       11.02475
H         75.35511       31.71541       10.08292
H         74.92624       33.41475       10.48315
H         73.01390       33.38061        8.89738
H         73.41287       31.69338        8.42553
N         73.73616       32.76583       13.64961
C         74.40697       32.84306       14.92851
H         75.43681       33.23349       14.79304
H         73.85816       33.53959       15.59981
H         74.44383       31.84211       15.40463
H         72.88791       33.33879       13.54334
Ca        76.22377       35.23386        5.48368
O         76.10873       38.20377        5.92875
H         75.41335       38.88788        6.08886
H         76.24725       38.22634        4.94982
O         73.46439       36.00709        5.31014
H         72.68242       36.60688        5.39265
H         73.91138       36.29701        4.47512

Ca 1.0



