%chk=holoCaM-CaMKII.loop4.water2.frame166.chk
%nprocshared=20
%mem=10GB
%nosave
#b3lyp/svp scf=(tight,noincore,xqc) Test 
#IOP(5/87=12) Density=Current Pop=(MK,readradii) iop(6/33=2) iop(6/42=6)

holoCaM-CaMKII.loop4.water2.frame166 

   -3  1 
C        -10.65851       41.14290       15.12391
C        -10.82065       40.34448       16.38054
O        -10.41862       39.18984       16.40415
H        -11.06894       42.16809       15.24151
H         -9.57971       41.22103       14.87433
H        -11.19458       40.63792       14.29450
N        -11.38643       40.90472       17.48376
C        -11.53095       40.18122       18.73551
C        -12.52442       39.04515       18.57977
O        -13.58772       39.25670       18.01234
C        -12.00350       41.11982       19.85501
C        -11.74991       40.53842       21.21599
O        -12.05861       41.18340       22.19766
O        -11.03340       39.40771       21.37429
H        -11.68537       41.89159       17.44181
H        -10.51932       39.81138       19.02173
H        -13.07484       41.38426       19.71883
H        -11.40578       42.05722       19.82650
N        -12.26305       37.82716       19.11999
C        -13.13565       36.67356       18.98598
C        -13.89344       36.45810       20.29457
O        -15.11567       36.50907       20.26933
C        -12.29483       35.43692       18.52712
C        -11.50080       35.77983       17.23253
C        -13.19732       34.20710       18.32452
C        -10.60340       34.65291       16.71489
H        -11.40456       37.71422       19.66232
H        -13.89919       36.86811       18.19824
H        -11.55668       35.18992       19.32161
H        -10.82850       36.63924       17.44170
H        -12.20085       36.07791       16.42250
H        -13.93264       34.39112       17.51309
H        -12.59499       33.31100       18.07004
H        -13.74195       33.96336       19.25986
H         -9.89056       34.32582       17.49869
H        -11.20124       33.78405       16.37490
H        -10.02229       35.02062       15.84186
N        -13.24854       36.20098       21.47071
C        -13.96531       35.88269       22.71115
C        -14.52710       37.09814       23.46902
O        -15.19102       36.87991       24.47349
C        -13.10383       34.97833       23.62092
C        -11.85259       35.61094       24.15682
O        -11.04238       34.89189       24.95635
O        -11.55721       36.76011       23.87784
H        -12.22348       36.11057       21.44763
H        -14.83222       35.23777       22.44080
H        -12.81393       34.07410       23.04147
H        -13.71927       34.64209       24.48334
N        -14.36064       38.38654       23.04381
C        -15.08993       39.50974       23.63362
C        -14.44736       40.20479       24.82885
O        -15.03599       41.17499       25.28648
H        -13.86068       38.55823       22.16031
H        -16.12645       39.19383       23.88619
H        -15.18998       40.29126       22.84947
N        -13.25641       39.82429       25.37694
C        -12.60169       40.56428       26.47358
C        -12.01154       41.92921       26.05090
O        -11.34448       42.54334       26.87232
C        -11.55121       39.68039       27.20621
C        -10.54746       39.06128       26.29078
O        -10.49267       37.84775       26.18155
O         -9.79921       39.82364       25.49036
H        -12.80981       38.97198       25.01204
H        -13.34940       40.77899       27.26937
H        -12.09519       38.85489       27.71556
H        -11.03240       40.26873       27.99336
N        -12.27225       42.51139       24.84211
C        -11.82411       43.84943       24.47404
C        -10.38961       43.93915       23.98604
O         -9.98895       45.04267       23.63904
H        -12.92071       42.06206       24.19332
H        -12.00537       44.55212       25.31705
H        -12.44866       44.20130       23.62328
N         -9.56387       42.85617       23.89391
C         -8.20305       42.92753       23.35911
C         -8.00316       41.98348       22.18671
O         -8.87905       41.19565       21.86506
C         -7.17968       42.57408       24.45886
C         -7.02908       43.69804       25.48845
C         -5.96730       43.35384       26.50316
N         -6.25227       43.33277       27.82478
O         -4.83060       43.10409       26.12762
H         -9.90842       41.93860       24.20361
H         -7.97844       43.94646       22.97238
H         -6.17722       42.43165       24.00184
H         -7.46755       41.61737       24.94857
H         -8.00221       43.89580       25.98547
H         -6.70919       44.62326       24.96060
H         -7.19819       43.55573       28.16547
H         -5.51857       43.10358       28.51170
N         -6.83287       42.03295       21.49270
C         -6.45771       41.12833       20.41601
C         -5.13545       40.47348       20.79782
O         -4.16596       41.17463       21.05835
C         -6.37358       41.90583       19.07392
C         -5.81128       41.03720       17.93558
C         -7.77356       42.40154       18.66512
H         -6.14810       42.76348       21.74636
H         -7.22383       40.33527       20.27401
H         -5.69805       42.78055       19.19767
H         -6.44648       40.14397       17.76546
H         -5.76617       41.62252       16.99264
H         -4.77743       40.71010       18.16649
H         -8.46341       41.54001       18.51831
H         -8.20476       43.06756       19.44036
H         -7.72218       42.96990       17.71239
N         -5.02733       39.11786       20.81653
C         -3.80117       38.38216       21.10693
C         -3.09278       38.07493       19.79454
O         -3.61774       38.42401       18.75341
C         -4.21460       37.10090       21.88444
C         -3.09372       36.18134       22.29367
N         -2.10738       36.60616       23.11441
O         -3.08764       35.02705       21.89255
H         -5.83618       38.56927       20.50153
H         -3.11789       39.00199       21.72740
H         -4.92762       36.52167       21.25435
H         -4.75417       37.40409       22.80723
H         -2.09848       37.57123       23.47222
H         -1.34923       35.96414       23.39003
N         -1.88908       37.44295       19.75037
C         -1.24955       37.03770       18.49746
C         -2.15135       36.05989       17.75707
O         -2.42288       36.25531       16.58153
C          0.11048       36.37534       18.80100
C          0.82115       35.90136       17.55363
C          1.20960       36.81046       16.55369
C          1.10586       34.53594       17.38500
C          1.87023       36.35827       15.40647
C          1.76609       34.08688       16.23863
C          2.15156       34.99738       15.24495
O          2.79213       34.57698       14.13553
H         -1.42019       37.21305       20.63727
H         -1.06427       37.93310       17.86275
H         -0.05714       35.51847       19.49034
H          0.76438       37.10430       19.32705
H          1.00486       37.86810       16.66078
H          0.81634       33.81624       18.14051
H          2.16577       37.06689       14.64281
H          1.97784       33.03121       16.12532
H          3.00879       33.64492       13.98920
N         -2.69083       35.00956       18.43432
C         -3.61018       34.02200       17.87540
C         -4.76037       34.68777       17.14076
O         -4.99502       34.36809       15.98347
C         -4.14078       33.14787       19.04143
C         -5.12227       32.04999       18.61551
C         -5.55114       31.24819       19.81365
O         -4.63746       30.57268       20.53773
O         -6.72718       31.20600       20.13834
H         -2.46140       34.93815       19.43578
H         -3.06148       33.37308       17.15761
H         -4.64904       33.80070       19.78760
H         -3.26827       32.67209       19.54162
H         -4.63804       31.37235       17.88199
H         -6.01774       32.51015       18.14294
N         -5.52137       35.62208       17.76497
C         -6.68143       36.26397       17.15206
C         -6.26249       37.03753       15.90682
O         -6.82192       36.80085       14.84565
C         -7.41962       37.14349       18.19380
C         -7.87534       36.27709       19.39658
C         -8.65102       37.01625       20.44313
O         -9.73053       36.58565       20.80575
O         -8.12773       38.08304       21.06909
H         -5.25153       35.87816       18.72490
H         -7.41123       35.48167       16.84387
H         -8.31097       37.60384       17.71381
H         -6.75259       37.95612       18.54111
H         -7.00305       35.84462       19.91947
H         -8.49530       35.43484       19.02443
N         -5.23214       37.92465       15.95620
C         -4.70313       38.63950       14.81226
H         -3.64525       38.33549       14.65111
H         -5.27110       38.43418       13.88222
H         -4.72505       39.73038       15.01586
H         -4.76074       38.07134       16.84677
Ca       -10.06579       39.17671       23.37614
O         -6.99101       38.97330       24.07898
H         -7.28281       38.96062       25.02507
H         -6.10547       39.41516       24.09906
O         -8.02393       36.06109       23.56762
H         -8.99047       35.92309       23.40811
H         -7.64993       35.14606       23.61692

Ca 1.0



