%chk=holoCaM.loop1.water2.frame342.chk
%nprocshared=20
%mem=10GB
%nosave
#b3lyp/svp scf=(tight,noincore,xqc) Test 
#IOP(5/87=12) Density=Current Pop=(MK,readradii) iop(6/33=2) iop(6/42=6)

holoCaM.loop1.water2.frame342 

   0  1 
C         -7.89779       19.29543       33.91254
C         -8.90204       20.40133       33.93854
O         -8.67560       21.38460       34.63219
H         -7.02366       19.55334       34.55006
H         -8.36618       18.37046       34.30567
H         -7.54628       19.12949       32.87374
N        -10.04304       20.32294       33.19255
C        -11.02454       21.39072       33.22473
C        -11.90573       21.21517       34.45821
O        -12.62222       20.23007       34.56734
C        -11.86271       21.46310       31.93503
C        -12.66955       22.73587       31.90281
O        -12.47944       23.67242       32.85500
O        -13.47069       22.93007       31.00704
H        -10.19734       19.50562       32.58280
H        -10.45533       22.34962       33.25303
H        -12.53304       20.57838       31.87971
H        -11.20007       21.46398       31.04235
N        -11.83931       22.13143       35.45211
C        -12.50870       22.03158       36.74360
C        -14.03413       22.09817       36.66987
O        -14.68789       21.27966       37.30017
C        -11.98116       23.17409       37.65212
C        -12.33849       23.04451       39.14500
C        -11.83374       21.74954       39.81732
C        -10.31089       21.54519       39.69725
N         -9.89528       20.31066       40.36110
H        -11.17606       22.89907       35.31052
H        -12.19586       21.06940       37.19698
H        -12.35269       24.15204       37.27741
H        -10.87395       23.21378       37.58077
H        -13.44031       23.10696       39.27101
H        -11.88906       23.91374       39.67423
H        -12.35733       20.87287       39.38452
H        -12.10654       21.79489       40.89365
H         -9.78045       22.40951       40.15475
H        -10.01322       21.47514       38.62922
H         -8.86032       20.19930       40.25952
H        -10.13619       20.34732       41.37762
H        -10.36569       19.48993       39.91403
N        -14.65919       23.09880       35.98539
C        -16.09350       23.40717       36.08444
C        -16.88556       23.15801       34.79661
O        -18.07186       23.45896       34.78524
C        -16.25591       24.85239       36.62808
C        -15.44886       25.84401       35.84412
O        -14.48212       26.37645       36.36657
O        -15.65847       25.99728       34.52717
H        -14.06856       23.71754       35.41361
H        -16.58651       22.74813       36.83221
H        -15.87261       24.85710       37.67316
H        -17.32276       25.15796       36.66113
N        -16.35375       22.49389       33.73209
C        -17.15485       22.02732       32.60516
C        -17.63375       23.11687       31.67631
O        -18.82551       23.20280       31.41466
H        -15.37127       22.18738       33.76706
H        -18.01395       21.42475       32.97872
H        -16.52640       21.35186       31.98678
N        -16.72996       23.94178       31.08510
C        -17.04992       24.89932       30.02953
C        -16.18821       24.65574       28.78037
O        -16.24194       25.46455       27.86449
C        -16.93645       26.34005       30.57566
C        -15.58052       26.76898       31.05083
O        -14.61348       26.03932       30.94626
O        -15.43239       27.98705       31.60210
H        -15.75033       23.86457       31.38762
H        -18.11259       24.79927       29.71414
H        -17.64005       26.42967       31.43163
H        -17.26349       27.05638       29.79144
N        -15.41354       23.53339       28.64861
C        -14.61535       23.22368       27.46887
C        -13.31962       24.00799       27.34134
O        -12.60389       23.75267       26.38218
H        -15.44988       22.80327       29.37217
H        -15.23930       23.34021       26.55605
H        -14.31222       22.15541       27.52791
N        -12.93423       24.95586       28.24328
C        -11.67880       25.70334       28.14935
C        -10.84785       25.62475       29.42669
O        -11.31565       25.15235       30.45376
C        -11.95730       27.18988       27.77061
C        -12.22423       27.31586       26.27345
O        -13.06155       27.72969       28.45545
H        -13.56136       25.17240       29.02213
H        -11.02460       25.25875       27.36688
H        -11.06011       27.81566       27.97187
H        -13.06193       27.37623       29.37583
H        -11.33368       26.96949       25.70515
H        -13.10813       26.71683       25.97309
H        -12.40130       28.38191       26.01597
N         -9.54930       26.04556       29.38091
C         -8.59590       26.01959       30.48546
C         -8.02381       27.42407       30.67782
O         -7.45633       27.98885       29.75240
C         -7.51340       24.92226       30.19947
C         -8.15100       23.53159       30.50199
C         -6.21973       25.11623       31.01510
C         -7.24113       22.32472       30.27264
H         -9.18566       26.37489       28.47212
H         -9.09433       25.73428       31.43571
H         -7.20696       24.98839       29.13193
H         -9.05412       23.39775       29.87007
H         -8.47257       23.49999       31.56854
H         -5.75866       26.10121       30.79752
H         -6.40641       25.02857       32.09524
H         -5.45614       24.36462       30.73014
H         -6.90501       22.28622       29.21696
H         -6.36256       22.34455       30.94987
H         -7.80675       21.39684       30.50697
N         -8.12175       28.02289       31.89856
C         -7.55797       29.31705       32.26584
C         -6.14784       29.11809       32.79932
O         -5.66546       27.99920       32.78340
C         -8.45399       29.97927       33.35505
C         -9.88622       30.18864       32.85876
O         -8.46971       29.17365       34.50633
H         -8.53027       27.47858       32.66088
H         -7.51209       29.98931       31.38069
H         -8.03625       30.97581       33.61456
H         -9.00459       29.65395       35.19061
H        -10.35015       29.20792       32.65373
H        -10.49066       30.69451       33.64205
H         -9.89747       30.81378       31.94248
N         -5.42593       30.15679       33.30031
C         -4.09460       30.00458       33.89026
C         -4.10889       29.05321       35.08468
O         -3.30566       28.13139       35.09045
C         -3.50290       31.37849       34.28798
C         -3.17522       32.19981       33.02401
O         -4.39964       32.05846       35.13519
H         -5.84856       31.09633       33.27415
H         -3.40244       29.56738       33.13372
H         -2.54318       31.21197       34.82743
H         -4.16711       33.02309       35.13157
H         -2.70383       33.16531       33.30381
H         -2.44968       31.64458       32.39000
H         -4.08555       32.40701       32.42529
N         -4.98745       29.19728       36.12194
C         -5.00670       28.28698       37.27238
C         -5.18254       26.83733       36.83359
O         -4.41445       25.98546       37.25872
C         -6.07480       28.69929       38.32910
C         -7.54195       28.55974       37.87942
C         -8.57291       28.93212       38.96003
C         -8.57048       30.40707       39.39823
N         -8.91761       31.31356       38.30178
H         -5.66612       29.97180       36.08651
H         -4.02879       28.37124       37.79769
H         -5.87053       29.74900       38.62502
H         -5.93777       28.05814       39.22820
H         -7.73634       27.49555       37.64850
H         -7.71500       29.15906       36.97112
H         -8.39696       28.29292       39.85234
H         -9.58746       28.69047       38.57160
H         -7.58644       30.68812       39.82817
H         -9.32965       30.52060       40.20407
H         -8.97384       32.28878       38.67447
H         -8.18797       31.29035       37.55502
H         -9.84874       31.05526       37.90058
N         -6.16649       26.50066       35.95628
C         -6.44011       25.13774       35.50481
C         -5.22878       24.54507       34.78717
O         -4.95248       23.36739       34.96652
C         -7.72197       25.11263       34.62430
C         -8.95943       25.60128       35.42065
C        -10.23838       25.68467       34.63105
O        -10.30244       26.33567       33.60597
O        -11.36906       25.16903       35.13312
H         -6.74283       27.26756       35.58292
H         -6.65694       24.49578       36.38752
H         -7.90600       24.08078       34.25290
H         -7.56915       25.78031       33.75826
H         -8.78405       26.62592       35.78749
H         -9.11676       24.94213       36.30205
N         -4.41712       25.32228       34.01904
C         -3.21926       24.83103       33.37287
H         -2.51022       24.43891       34.13251
H         -3.47333       24.03445       32.64403
H         -2.71833       25.66289       32.82896
H         -4.63549       26.31279       33.91124
Ca       -13.84852       25.35534       33.38988
O        -12.29863       28.26648       31.48728
H        -12.98885       28.94900       31.29387
H        -11.58208       28.45086       30.82813
O        -12.72000       28.52069       34.42452
H        -13.00237       29.40814       34.08934
H        -13.45533       28.24478       35.02446

Ca 1.0



