%chk=holoCaM-CaMKII.loop2.water1.frame14.chk
%nprocshared=20
%mem=10GB
%nosave
#b3lyp/svp scf=(tight,noincore,xqc) Test 
#IOP(5/87=12) Density=Current Pop=(MK,readradii) iop(6/33=2) iop(6/42=6)

holoCaM-CaMKII.loop2.water1.frame14 

   -2  1 
C         46.65432       83.62409       10.89138
C         47.43998       83.82039        9.62541
O         48.63564       83.56978        9.60913
H         45.83976       82.88926       10.71180
H         47.29982       83.24159       11.70995
H         46.20233       84.58769       11.20761
N         46.80426       84.25404        8.50505
C         47.45565       84.41677        7.20921
C         48.53121       85.49576        7.23424
O         48.24392       86.62159        7.61574
C         46.39518       84.74367        6.14398
C         47.01328       84.90142        4.78856
O         46.85706       85.93756        4.16367
O         47.76313       83.91119        4.27002
H         45.78972       84.43491        8.57430
H         47.90787       83.44320        6.91841
H         45.84774       85.67286        6.41652
H         45.66572       83.90565        6.10077
N         49.78966       85.21038        6.78434
C         50.89182       86.16716        6.74853
C         51.44774       86.40698        5.33582
O         52.35408       87.22028        5.21732
C         52.01012       85.63825        7.65637
H         49.97866       84.25624        6.45511
H         50.55922       87.15011        7.14586
H         52.85976       86.35189        7.69923
H         51.62536       85.49070        8.68833
H         52.38602       84.66141        7.27995
N         51.00041       85.72956        4.23280
C         51.63021       85.84637        2.90523
C         50.65180       85.74855        1.72402
O         51.10925       85.83529        0.59241
C         52.74258       84.78219        2.76729
C         52.24673       83.37500        2.90967
O         53.03906       82.44687        2.90336
O         50.94337       83.13105        3.11395
H         50.29527       85.00053        4.37979
H         52.13375       86.83421        2.81777
H         53.49245       84.95681        3.56918
H         53.25884       84.88809        1.78870
N         49.30801       85.59103        1.89040
C         48.35232       85.55474        0.79141
C         48.37213       84.30806       -0.08502
O         47.58286       84.28303       -1.01937
H         48.92033       85.58455        2.83561
H         48.50439       86.45597        0.15825
H         47.32707       85.61764        1.21723
N         49.20215       83.23988        0.12031
C         49.21062       82.07583       -0.77580
C         47.93202       81.21657       -0.71971
O         47.85157       80.26320       -1.48238
C         50.46147       81.18949       -0.54675
C         50.48326       80.44063        0.75589
N         51.46592       79.54870        1.00956
O         49.60318       80.61403        1.57758
H         49.88522       83.27918        0.88566
H         49.31946       82.46404       -1.81271
H         51.38111       81.80931       -0.62388
H         50.49486       80.43118       -1.35866
H         52.21470       79.37735        0.32333
H         51.46160       79.00903        1.88499
N         46.89647       81.48303        0.13128
C         45.63684       80.74729        0.11409
C         45.58515       79.51887        1.00840
O         44.51479       78.93060        1.07862
H         46.93886       82.31263        0.73514
H         45.35085       80.49267       -0.93045
H         44.84631       81.42899        0.49570
N         46.65574       79.07049        1.72853
C         46.58548       77.93101        2.64888
C         47.04831       78.31015        4.04921
O         47.59898       79.38313        4.24954
C         47.43649       76.73461        2.13287
C         46.96630       76.23258        0.76501
O         48.81316       77.02916        2.11367
H         47.54907       79.55402        1.62432
H         45.53351       77.58347        2.73654
H         47.30248       75.88269        2.83301
H         48.95715       77.81790        1.53310
H         47.08218       77.01912       -0.00904
H         47.56138       75.34383        0.46483
H         45.89736       75.93348        0.82175
N         46.90638       77.41306        5.06281
C         47.48633       77.57902        6.38782
C         48.81465       76.85611        6.36351
O         48.86702       75.69900        5.96676
C         46.53430       77.01713        7.48243
C         45.21615       77.83274        7.51539
C         47.22084       77.03918        8.86796
C         44.12825       77.18879        8.37866
H         46.48307       76.49780        4.84567
H         47.66887       78.65485        6.61675
H         46.30298       75.96017        7.22318
H         44.79710       77.90842        6.48991
H         45.42085       78.86524        7.87783
H         47.48268       78.07842        9.16271
H         46.57536       76.59595        9.65057
H         48.14996       76.43286        8.85979
H         43.21095       77.81324        8.34246
H         43.88224       76.18055        7.98193
H         44.43224       77.09948        9.43996
N         49.93719       77.49291        6.78499
C         51.27299       76.92031        6.70793
C         51.70543       76.46789        8.07396
O         50.94658       76.60925        9.02564
C         52.26333       77.99122        6.21279
C         51.84742       78.63335        4.93655
O         52.65024       78.78764        4.03091
O         50.62597       79.18479        4.86640
H         49.84199       78.43338        7.19459
H         51.28724       76.04158        6.02611
H         53.29330       77.58804        6.10999
H         52.28757       78.80804        6.96866
N         52.92011       75.88715        8.24850
C         53.38907       75.45936        9.55037
C         53.61677       76.65632       10.47804
O         53.09884       76.60130       11.58037
C         54.59189       74.50600        9.42052
C         54.97427       73.89352       10.74601
C         56.27997       74.03946       11.23859
C         54.03570       73.15722       11.49759
C         56.63957       73.46405       12.46055
C         54.39695       72.59412       12.72224
C         55.69840       72.74568       13.20324
H         53.51419       75.71471        7.42121
H         52.58033       74.83532        9.98826
H         55.45823       75.00877        8.95427
H         54.29862       73.67460        8.74202
H         57.02083       74.59221       10.67465
H         53.02230       73.01516       11.14547
H         57.64934       73.57514       12.83125
H         53.66655       72.03748       13.29558
H         55.97743       72.30346       14.15000
N         54.31591       77.79114       10.12870
C         54.43848       78.95739       11.00639
C         53.11889       79.63483       11.37678
O         53.15244       80.55972       12.17875
C         55.27303       79.95084       10.18509
C         56.10431       79.03097        9.32246
C         55.06938       77.98760        8.91067
H         54.98072       78.62132       11.91776
H         54.60603       80.50208        9.47995
H         55.83322       80.69723       10.78867
H         56.62372       79.52694        8.47511
H         56.86167       78.54178        9.97691
H         54.39098       78.39296        8.13156
H         55.60299       77.09493        8.54533
N         51.93348       79.26714       10.80650
C         50.64916       79.90615       11.07647
C         49.66293       78.93499       11.72087
O         48.57586       79.36331       12.08045
C         50.03780       80.39247        9.74569
C         50.98485       81.28406        8.92728
C         50.44930       81.57426        7.55263
O         51.14697       82.18637        6.76230
O         49.23759       81.13069        7.16009
H         51.93377       78.52320       10.10234
H         50.78641       80.76652       11.76792
H         49.07789       80.92326        9.92958
H         49.81676       79.48808        9.14382
H         51.94930       80.75608        8.77801
H         51.17860       82.23580        9.46726
N         49.95108       77.61010       11.87366
C         49.02482       76.66548       12.45169
H         48.08627       76.64306       11.86013
H         49.47446       75.64795       12.43548
H         48.80893       76.94270       13.50342
H         50.84356       77.23189       11.55418
Ca        50.44030       81.18990        4.00641
O         46.51196       81.65666        3.32872
H         46.05298       82.44730        2.95276
H         46.28352       81.66697        4.29216

Ca 1.0



