%chk=holoCaM-CaMKII.loop2.water2.frame373.chk
%nprocshared=20
%mem=10GB
%nosave
#b3lyp/svp scf=(tight,noincore,xqc) Test 
#IOP(5/87=12) Density=Current Pop=(MK,readradii) iop(6/33=2) iop(6/42=6)

holoCaM-CaMKII.loop2.water2.frame373 

   -2  1 
C         43.82259       75.31573       59.91250
C         44.43348       76.28357       60.87433
O         45.60700       76.59709       60.74575
H         42.96270       75.81150       59.41279
H         44.56082       75.02318       59.13659
H         43.46533       74.41188       60.44638
N         43.67464       76.81865       61.86461
C         44.14234       77.89025       62.72778
C         44.28153       77.44624       64.18578
O         43.56297       76.55946       64.62474
C         43.10687       79.02113       62.63561
C         43.45840       80.12243       63.55454
O         44.54482       80.93735       63.39614
O         42.74394       80.24051       64.53857
H         42.69455       76.50504       61.96101
H         45.12380       78.28009       62.38513
H         42.12521       78.59851       62.96557
H         42.94828       79.41849       61.62221
N         45.16483       78.10074       65.00545
C         45.24760       77.91615       66.45332
C         45.30874       79.25145       67.24409
O         45.28912       79.17814       68.46474
C         46.46065       77.03470       66.78496
H         45.81010       78.76357       64.56782
H         44.35039       77.35887       66.79782
H         46.38319       76.06898       66.23760
H         47.41530       77.52547       66.50006
H         46.48514       76.79995       67.87116
N         45.43308       80.48514       66.64447
C         45.59340       81.76339       67.36700
C         44.60392       82.87764       66.96423
O         44.56242       83.89435       67.64214
C         47.05970       82.24129       67.22731
C         47.59878       82.37718       65.81841
O         46.88691       82.24688       64.83647
O         48.91234       82.61406       65.64394
H         45.50690       80.52019       65.63002
H         45.41374       81.59341       68.45099
H         47.68814       81.48148       67.73625
H         47.20301       83.20900       67.75665
N         43.76886       82.75245       65.90089
C         42.73573       83.70063       65.50146
C         43.26135       85.00873       64.96034
O         42.47008       85.92077       64.76560
H         43.85581       81.91877       65.35981
H         42.06247       83.87448       66.36376
H         42.12701       83.25640       64.67940
N         44.57317       85.16294       64.64565
C         45.14921       86.39349       64.11314
C         44.68555       86.75869       62.68594
O         45.18563       87.74309       62.15763
C         46.68412       86.29167       64.19279
C         47.28176       85.22006       63.34489
N         48.61537       85.10811       63.28850
O         46.58604       84.45047       62.70560
H         45.20626       84.37108       64.81892
H         44.88175       87.23077       64.79205
H         46.98579       86.08114       65.24315
H         47.13381       87.25879       63.88838
H         49.23864       85.72480       63.82380
H         49.01328       84.41083       62.67660
N         43.72923       86.04960       62.00928
C         43.24397       86.40119       60.67796
C         44.15991       85.95567       59.55394
O         43.81317       86.17640       58.40179
H         43.26760       85.25422       62.46032
H         43.04470       87.49374       60.62119
H         42.27651       85.88035       60.51167
N         45.33290       85.31373       59.81031
C         46.27443       84.85805       58.80683
C         46.49240       83.30832       58.93770
O         47.22545       82.87622       60.07321
C         47.58126       85.70730       58.90981
C         47.36796       87.12424       58.35840
O         48.00462       85.84579       60.24032
H         45.59604       85.14603       60.77678
H         45.85301       85.01968       57.78696
H         48.39392       85.25774       58.29876
H         48.18318       84.94316       60.58901
H         47.10610       87.08804       57.27960
H         46.56367       87.65684       58.90942
H         48.30558       87.71400       58.46201
N         47.04289       82.75837       57.68321
C         47.83041       81.51824       57.77131
C         49.27346       81.82759       58.17688
O         49.92757       82.64474       57.54416
C         47.73131       80.75245       56.42189
C         46.22890       80.49376       56.11069
C         48.49706       79.41372       56.48852
C         45.95792       79.78199       54.78938
H         47.41389       83.45069       56.98844
H         47.36812       80.84787       58.52776
H         48.18280       81.38141       55.62133
H         45.68408       81.46097       56.06848
H         45.78458       79.88851       56.93222
H         48.53778       78.93795       55.48729
H         49.54696       79.55855       56.80941
H         48.00281       78.71539       57.19858
H         46.35533       80.37819       53.94245
H         46.40086       78.76617       54.77983
H         44.85938       79.66946       54.66577
N         49.83263       81.14441       59.21475
C         51.20332       81.29725       59.70389
C         52.04407       80.14263       59.23710
O         51.52481       79.27773       58.56022
C         51.19128       81.27668       61.23964
C         50.39626       82.40225       61.75637
O         49.15826       82.16871       62.23594
O         50.85669       83.53195       61.71037
H         49.26684       80.41166       59.64879
H         51.66303       82.22839       59.30591
H         52.20437       81.33472       61.68975
H         50.72214       80.32644       61.57827
N         53.37472       80.08544       59.52065
C         54.23320       79.02279       59.01682
C         53.91448       77.64228       59.61471
O         53.70314       76.73853       58.81896
C         55.72077       79.38071       59.17495
C         56.54944       78.47095       58.30165
C         56.45988       78.58339       56.89974
C         57.39422       77.50186       58.85979
C         57.20110       77.73908       56.07316
C         58.12901       76.65074       58.02653
C         58.03346       76.77026       56.63586
H         53.80124       80.87154       60.03502
H         54.04833       78.98074       57.92018
H         56.01301       79.32712       60.24186
H         55.90681       80.42316       58.83149
H         55.81731       79.32901       56.44568
H         57.46870       77.39397       59.93424
H         57.12597       77.83584       54.99721
H         58.77047       75.89498       58.45841
H         58.60281       76.11239       55.99292
N         53.83481       77.36462       60.96367
C         53.46599       76.04517       61.48422
C         52.04597       75.62850       61.11615
O         51.70970       74.46703       61.29948
C         53.65291       76.16941       63.00253
C         53.41613       77.64900       63.24481
C         54.08347       78.30347       62.03739
H         54.15533       75.26729       61.08672
H         53.02635       75.48791       63.62199
H         54.72163       75.97842       63.23873
H         52.32104       77.83025       63.16564
H         53.77031       78.03076       64.22758
H         53.62050       79.29661       61.88856
H         55.18247       78.39349       62.17648
N         51.17084       76.51242       60.57297
C         49.84324       76.16529       60.08477
C         49.92374       75.74885       58.62276
O         49.21760       74.83491       58.22275
C         48.92490       77.38575       60.24728
C         48.72622       77.73568       61.73723
C         47.90250       78.97016       61.94811
O         47.63919       79.38630       63.19660
O         47.49099       79.62111       61.00764
H         51.46218       77.49353       60.47316
H         49.39060       75.33764       60.67621
H         47.93528       77.17913       59.78997
H         49.37721       78.23833       59.70704
H         49.70508       77.91243       62.23109
H         48.22294       76.88227       62.24124
N         50.79820       76.36431       57.77987
C         50.98984       76.04343       56.38524
H         52.04299       75.71943       56.23893
H         50.31074       75.24116       56.03741
H         50.82139       76.95827       55.77707
H         51.40421       77.09088       58.14848
Ca        45.89863       81.91968       61.76557
O         43.66870       83.02881       61.17225
H         43.70639       82.11644       60.79429
H         42.79011       83.36327       60.88839
O         44.71837       80.02768       59.94259
H         45.50116       79.44773       59.80227
H         43.95929       79.45990       59.66691

Ca 1.0



