%chk=holoCaM.loop3.water2.frame391.chk
%nprocshared=20
%mem=10GB
%nosave
#b3lyp/svp scf=(tight,noincore,xqc) Test 
#IOP(5/87=12) Density=Current Pop=(MK,readradii) iop(6/33=2) iop(6/42=6)

holoCaM.loop3.water2.frame391 

   0  1 
C         71.92606       60.19001       88.36841
C         71.46972       58.86506       88.89203
O         70.67246       58.20723       88.23787
H         73.02506       60.16883       88.21919
H         71.43145       60.42009       87.40085
H         71.66735       60.98524       89.09929
N         71.91848       58.42467       90.09993
C         71.48426       57.17360       90.69780
C         70.57774       57.52622       91.85209
O         71.03910       58.10888       92.82458
C         72.71645       56.34813       91.11046
C         72.40387       54.98502       91.64623
O         73.42277       54.17029       91.96180
O         71.25538       54.59592       91.77810
H         72.55188       59.03206       90.64380
H         70.90529       56.58035       89.95591
H         73.31013       56.90295       91.86933
H         73.35675       56.20545       90.21793
N         69.23518       57.31350       91.74284
C         68.29060       57.86346       92.70597
C         68.23803       57.07458       94.00440
O         67.58058       57.54261       94.92477
C         66.87613       57.98998       92.09143
C         66.80903       58.79370       90.77046
C         67.41197       60.20472       90.86990
C         67.20106       60.99050       89.56759
N         67.82833       62.31006       89.64427
H         68.87592       56.88515       90.87696
H         68.62194       58.89442       92.95841
H         66.21720       58.49276       92.83310
H         66.46206       56.97622       91.89674
H         65.73716       58.87110       90.48492
H         67.32967       58.24528       89.95689
H         68.50432       60.12600       91.05835
H         66.93657       60.75828       91.70809
H         66.10978       61.11143       89.38573
H         67.63985       60.43025       88.71183
H         67.63311       62.83464       88.76101
H         67.44084       62.85030       90.45162
H         68.86385       62.20740       89.75271
N         68.88563       55.88191       94.16374
C         68.86768       55.12391       95.41276
C         70.26316       54.97845       96.02047
O         70.36220       54.44161       97.11430
C         68.16447       53.77049       95.19074
C         68.86400       52.90278       94.18928
O         70.10447       52.45763       94.44414
O         68.30405       52.58114       93.15355
H         69.40407       55.48020       93.37037
H         68.26675       55.66351       96.17642
H         67.12922       53.97252       94.83681
H         68.09290       53.21489       96.15013
N         71.37867       55.47079       95.40408
C         72.69691       55.47467       96.01602
C         73.25306       54.09429       96.27152
O         73.59411       53.78993       97.40557
H         71.30431       55.92271       94.48337
H         72.65929       56.05880       96.96050
H         73.40379       55.99152       95.32917
N         73.42906       53.23188       95.23530
C         74.10999       51.94154       95.34086
C         75.34793       51.90634       94.44059
O         75.98510       50.86600       94.36634
C         73.14437       50.77007       95.01874
C         72.76969       50.61434       93.53153
N         71.83018       49.51372       93.35579
O         72.23275       51.81237       93.05623
H         73.10246       53.54589       94.31554
H         74.44518       51.77676       96.38920
H         72.22860       50.87750       95.64134
H         73.64245       49.82331       95.32585
H         72.22498       48.65433       93.80449
H         71.78412       49.30476       92.33608
N         75.76190       53.00976       93.74081
C         76.90338       53.01296       92.83842
C         76.62162       52.37517       91.48561
O         77.54269       52.32429       90.68149
H         75.29168       53.91394       93.87661
H         77.77031       52.52846       93.33914
H         77.18613       54.06691       92.63003
N         75.39803       51.87056       91.15265
C         75.10424       51.18253       89.89630
C         73.88836       51.77873       89.21083
O         72.86323       51.91168       89.85820
C         74.82357       49.70548       90.22670
C         76.05225       49.06792       90.82498
C         76.06480       48.66159       92.16830
C         77.20775       48.89762       90.04383
C         77.22127       48.10735       92.72521
C         78.35853       48.33506       90.59890
C         78.37066       47.94170       91.94436
O         79.47824       47.40637       92.49537
H         74.63901       51.90559       91.84573
H         75.96483       51.22046       89.19336
H         74.53040       49.14039       89.31527
H         73.97226       49.65915       90.94179
H         75.18738       48.79050       92.78971
H         77.21735       49.20101       89.00423
H         77.22488       47.81083       93.76631
H         79.24019       48.21059       89.98301
H         80.29233       47.27646       91.98809
N         73.90026       52.08906       87.88183
C         72.71838       52.55042       87.15233
C         72.31277       51.47666       86.14645
O         73.04570       51.22124       85.19981
C         73.00151       53.93976       86.49944
C         73.13598       55.00608       87.61896
C         71.90835       54.34376       85.49210
C         73.52571       56.40062       87.12278
H         74.76890       51.93901       87.34437
H         71.85610       52.68004       87.84452
H         73.95611       53.87016       85.93145
H         73.91934       54.68274       88.33644
H         72.17262       55.08471       88.17176
H         70.92666       54.44728       85.99211
H         72.16242       55.29884       84.99138
H         71.82897       53.59772       84.67622
H         72.74944       56.83450       86.46111
H         73.63076       57.08439       87.99014
H         74.49615       56.36043       86.58687
N         71.14371       50.79102       86.32180
C         70.63784       49.76243       85.40909
C         70.16850       50.37545       84.09154
O         70.30382       51.57176       83.90984
C         69.47178       49.00479       86.08040
O         68.38389       49.86263       86.29140
H         70.59627       50.98996       87.17259
H         71.43873       49.01424       85.22319
H         69.80532       48.58815       87.05530
H         69.17031       48.14360       85.44221
H         67.55823       49.31972       86.19698
N         69.57281       49.60898       83.13152
C         69.03389       50.16178       81.88962
C         67.91344       51.15972       82.16076
O         68.01623       52.29816       81.72495
C         68.50583       49.03241       80.99362
H         69.49137       48.59466       83.29117
H         69.85430       50.66674       81.33237
H         67.68773       48.47110       81.49360
H         68.12082       49.44862       80.03806
H         69.32598       48.32096       80.75933
N         66.80633       50.79179       82.86764
C         65.67383       51.67923       83.13766
C         66.09510       52.91552       83.91173
O         65.74822       54.01517       83.50508
C         64.59143       50.92943       83.92211
H         66.76552       49.82501       83.22708
H         65.21220       51.99346       82.17424
H         64.24513       50.04991       83.33772
H         64.97878       50.57940       84.90248
H         63.71685       51.59345       84.09527
N         66.88284       52.80140       85.01809
C         67.37581       53.93604       85.80369
C         68.02478       54.96768       84.89119
O         67.66084       56.13289       84.97065
C         68.36104       53.44544       86.90033
C         67.64409       52.59267       87.97042
C         68.58495       51.99117       88.98400
O         68.65591       50.77852       89.09869
O         69.32276       52.76791       89.79715
H         67.19185       51.85371       85.27102
H         66.52545       54.43944       86.31614
H         68.81984       54.32034       87.41244
H         69.17093       52.85835       86.41664
H         67.09593       51.76167       87.48534
H         66.89747       53.22109       88.50090
N         68.92432       54.59373       83.94175
C         69.50448       55.50306       82.97365
H         70.61014       55.45809       83.03552
H         69.19527       55.19221       81.95245
H         69.18146       56.55325       83.12959
H         69.17212       53.60436       83.86234
Ca        70.67643       51.82636       91.37113
O         68.78444       49.76710       92.39383
H         68.80165       48.94202       92.93976
H         68.36112       49.49579       91.54138
O         71.26593       49.40397       89.86089
H         71.64027       49.13506       88.98612
H         70.64730       48.67302       90.11182

Ca 1.0



