%chk=holoCaM-CaMKII.loop4.water2.frame182.chk
%nprocshared=20
%mem=10GB
%nosave
#b3lyp/svp scf=(tight,noincore,xqc) Test 
#IOP(5/87=12) Density=Current Pop=(MK,readradii) iop(6/33=2) iop(6/42=6)

holoCaM-CaMKII.loop4.water2.frame182 

   -3  1 
C         -5.63704       39.01707        9.78107
C         -5.99640       37.65277       10.28016
O         -5.18344       36.74500       10.20450
H         -4.60633       39.03182        9.37019
H         -6.35107       39.31692        8.98540
H         -5.70309       39.74182       10.62020
N         -7.22828       37.44224       10.80728
C         -7.67122       36.16390       11.33290
C         -8.30119       35.33082       10.21512
O         -9.25525       35.76628        9.58696
C         -8.58930       36.42727       12.54339
C         -9.22307       35.17265       13.02601
O        -10.43868       35.08013       13.03878
O         -8.45852       34.11029       13.32664
H         -7.89068       38.23355       10.82659
H         -6.79959       35.59998       11.73980
H         -9.39280       37.14400       12.27042
H         -7.98417       36.87187       13.36463
N         -7.78459       34.09750        9.93575
C         -8.22131       33.20067        8.86811
C         -9.26142       32.21895        9.41173
O        -10.39579       32.24933        8.95536
C         -6.95578       32.48134        8.25674
C         -6.05163       33.52005        7.53579
C         -7.31545       31.30265        7.33188
C         -4.75633       32.94927        6.94310
H         -7.01575       33.77014       10.52689
H         -8.71980       33.78486        8.06054
H         -6.37023       32.03047        9.08564
H         -5.76011       34.30817        8.26316
H         -6.62275       33.99993        6.71231
H         -6.39638       30.76491        7.01467
H         -7.91398       30.54458        7.87878
H         -7.87305       31.64189        6.43760
H         -4.16063       33.77516        6.49883
H         -4.14396       32.45383        7.72210
H         -4.96451       32.22437        6.13022
N         -8.92311       31.27771       10.33697
C         -9.83056       30.20833       10.78958
C        -10.94328       30.64894       11.76024
O        -11.78618       29.81509       12.06221
C         -9.02459       29.00792       11.36877
C         -8.13150       29.37670       12.51947
O         -8.07549       30.66895       12.86270
O         -7.39726       28.55030       13.03464
H         -7.93266       31.25312       10.61188
H        -10.33934       29.80425        9.88638
H         -8.37187       28.61336       10.55896
H         -9.72071       28.19940       11.67444
N        -11.05899       31.91876       12.24822
C        -12.23643       32.37838       12.98789
C        -12.19468       32.14836       14.48783
O        -13.12445       31.56535       15.02741
H        -10.37697       32.62834       11.94948
H        -13.16221       31.95745       12.53657
H        -12.31680       33.47509       12.85887
N        -11.16618       32.64727       15.22886
C        -11.09503       32.61502       16.69415
C        -10.80416       34.00039       17.29914
O        -10.70067       34.09369       18.51455
C        -10.05047       31.56618       17.13048
C         -8.66020       31.81163       16.62887
O         -8.38116       32.83881       16.04199
O         -7.70888       30.88090       16.82351
H        -10.38376       33.06446       14.71213
H        -12.06412       32.27140       17.12055
H        -10.38461       30.58474       16.73381
H        -10.01258       31.49366       18.23945
N        -10.69394       35.12316       16.52781
C        -10.47824       36.46138       17.05970
C         -9.05047       36.78764       17.46798
O         -8.82984       37.93816       17.81886
H        -10.85863       35.06227       15.51689
H        -11.19807       36.66841       17.87973
H        -10.70121       37.18223       16.24051
N         -8.02179       35.89116       17.39624
C         -6.62049       36.28236       17.56467
C         -5.82851       35.99828       16.30449
O         -6.34288       35.38532       15.37812
C         -5.94179       35.58424       18.76299
C         -6.40593       36.14836       20.10845
C         -5.39070       35.82261       21.17605
N         -5.51581       34.73238       21.96235
O         -4.41505       36.54898       21.30606
H         -8.21888       34.91960       17.13968
H         -6.53569       37.37982       17.71336
H         -4.85477       35.79767       18.69947
H         -6.05558       34.47745       18.72835
H         -7.42890       35.79869       20.36248
H         -6.44000       37.25838       20.04533
H         -6.31445       34.09281       21.85524
H         -4.79625       34.52380       22.67153
N         -4.54371       36.45523       16.21011
C         -3.69244       36.22543       15.05696
C         -2.46529       35.46291       15.51560
O         -1.63631       36.04403       16.20557
C         -3.30798       37.58557       14.40176
C         -2.43287       37.39330       13.15740
C         -4.56171       38.38183       14.00937
H         -4.14847       37.00572       16.98835
H         -4.23224       35.61992       14.30594
H         -2.73398       38.19501       15.13649
H         -1.49923       36.85015       13.40536
H         -2.99751       36.83587       12.38709
H         -2.14390       38.37622       12.72974
H         -4.27201       39.34794       13.54338
H         -5.17959       37.80522       13.28832
H         -5.17594       38.61281       14.90474
N         -2.29105       34.14317       15.20177
C         -1.08733       33.42224       15.59079
C          0.09150       33.89020       14.73553
O         -0.10728       34.71087       13.85531
C         -1.28687       31.87948       15.59417
C         -1.18948       31.14335       14.27958
N         -2.22161       31.08100       13.41539
O         -0.17460       30.50964       14.03571
H         -3.03890       33.63843       14.71695
H         -0.89615       33.66581       16.66076
H         -2.22946       31.59977       16.11693
H         -0.46950       31.46985       16.22367
H         -3.11261       31.54805       13.61837
H         -2.13624       30.51646       12.55510
N          1.34919       33.41653       14.93729
C          2.51574       33.84313       14.15483
C          2.35884       33.54725       12.66355
O          2.61804       34.43391       11.86324
C          3.76718       33.13497       14.68806
C          5.00084       33.47770       13.88995
C          5.56937       34.76406       13.92457
C          5.58591       32.48834       13.08712
C          6.72119       35.04122       13.17705
C          6.72450       32.76951       12.33543
C          7.30269       34.04461       12.38305
O          8.41459       34.31865       11.67237
H          1.48355       32.72695       15.69214
H          2.66555       34.93976       14.28358
H          3.57701       32.04155       14.63537
H          3.93341       33.39555       15.75635
H          5.13261       35.54553       14.53514
H          5.15082       31.49828       13.03462
H          7.16469       36.02877       13.21616
H          7.15531       31.99181       11.71886
H          8.84946       33.64768       11.12615
N          1.94101       32.32783       12.22135
C          1.69849       32.01327       10.80970
C          0.78683       33.05038       10.17489
O          1.13454       33.58501        9.13090
C          1.06875       30.60502       10.66762
C          2.09406       29.49042       10.92730
C          1.45600       28.13382       10.82650
O          1.80801       27.34966        9.95929
O          0.50435       27.76862       11.70684
H          1.72986       31.61429       12.93127
H          2.65336       32.02645       10.23804
H          0.70030       30.46463        9.62674
H          0.19418       30.51527       11.34960
H          2.55421       29.58943       11.93188
H          2.89831       29.57688       10.16231
N         -0.38485       33.40044       10.76443
C         -1.30081       34.39126       10.19894
C         -0.66990       35.77584       10.09710
O         -1.00801       36.50425        9.17469
C         -2.59773       34.44508       11.02301
C         -3.33089       33.09993       10.94530
C         -4.58508       33.04927       11.75537
O         -5.45525       32.25758       11.44193
O         -4.63506       33.61598       12.96988
H         -0.62299       32.94132       11.65638
H         -1.58156       34.07369        9.16919
H         -3.26384       35.22991       10.61444
H         -2.34764       34.68448       12.07943
H         -2.67821       32.29207       11.29723
H         -3.57482       32.86406        9.89257
N          0.28030       36.18728       10.98078
C          0.96581       37.46184       10.90982
H          2.04687       37.28189       10.72434
H          0.57361       38.11205       10.10113
H          0.85927       37.99384       11.87841
H          0.55494       35.55932       11.73750
Ca        -7.09433       32.39792       13.82845
O         -4.97773       30.15800       14.68887
H         -4.35821       29.42067       14.46247
H         -5.74648       30.02202       14.08567
O         -5.14641       32.51403       16.54601
H         -5.07046       31.79113       17.21796
H         -5.95219       33.01710       16.81986

Ca 1.0



