%chk=holoCaM.loop3.water1.frame1.chk
%nprocshared=20
%mem=10GB
%nosave
#b3lyp/svp scf=(tight,noincore,xqc) Test 
#IOP(5/87=12) Density=Current Pop=(MK,readradii) iop(6/33=2) iop(6/42=6)

holoCaM.loop3.water1.frame1 

   0  1 
C         56.16234       56.80230       46.04195
C         57.01525       57.65437       45.15056
O         56.67122       58.80589       44.92608
H         55.15301       56.69596       45.59233
H         56.59770       55.78823       46.16940
H         56.07387       57.27696       47.04037
N         58.13821       57.13765       44.58283
C         58.99828       57.87635       43.67544
C         58.84378       57.24155       42.31182
O         59.71314       56.51015       41.86190
C         60.43972       57.86464       44.22107
C         61.38093       58.75787       43.46738
O         61.01731       59.40292       42.49630
O         62.64054       58.88075       43.91270
H         58.38273       56.15220       44.76978
H         58.68862       58.94338       43.59983
H         60.84209       56.82922       44.24408
H         60.42936       58.24711       45.25752
N         57.68021       57.43813       41.63247
C         57.35328       56.78688       40.36745
C         58.22179       57.21936       39.19171
O         58.07852       56.61227       38.13935
C         55.87748       57.04464       40.00749
C         54.91972       56.40792       41.02486
C         53.46727       56.66616       40.62218
C         52.50053       55.92633       41.55176
N         51.11589       56.15408       41.14299
H         56.97372       58.04533       42.07558
H         57.49354       55.69020       40.49917
H         55.65753       56.58934       39.01676
H         55.70003       58.14145       39.93600
H         55.08744       56.80995       42.04716
H         55.10817       55.31194       41.04323
H         53.30650       56.30431       39.58336
H         53.26382       57.75966       40.65644
H         52.64143       56.27284       42.59988
H         52.71757       54.83531       41.50944
H         50.48025       55.61028       41.76962
H         50.88320       57.17092       41.21779
H         50.97534       55.83178       40.15755
N         59.13751       58.22729       39.27427
C         60.02402       58.58344       38.16459
C         61.47303       58.23942       38.48158
O         62.30561       58.35829       37.59235
C         59.83921       60.05522       37.73215
C         60.07140       61.05867       38.82528
O         60.96950       61.87926       38.72932
O         59.23813       61.10668       39.88000
H         59.24141       58.73310       40.16210
H         59.78002       57.96995       37.27068
H         58.80346       60.20140       37.35756
H         60.53235       60.26214       36.88672
N         61.84464       57.75208       39.69979
C         63.17410       57.27741       40.01342
C         64.19372       58.35967       39.85456
O         65.12893       58.17598       39.08867
H         61.15928       57.67550       40.45206
H         63.41955       56.41142       39.36061
H         63.19609       56.92690       41.06926
N         64.07889       59.51797       40.56198
C         65.05727       60.59264       40.47291
C         65.80454       60.77460       41.79200
O         66.72373       61.58052       41.83756
C         64.36868       61.86010       39.90997
C         63.55044       62.74848       40.87551
N         64.39775       63.76945       41.48460
O         62.91227       62.03808       41.89725
H         63.26739       59.63554       41.18458
H         65.82692       60.31181       39.72181
H         63.70786       61.53474       39.07754
H         65.13632       62.50825       39.43358
H         64.80527       64.36672       40.72919
H         63.78580       64.39780       42.05237
N         65.47813       60.03908       42.90095
C         66.18247       60.08618       44.16947
C         65.40256       60.80062       45.26064
O         65.90478       60.85641       46.37197
H         64.69330       59.38266       42.86405
H         67.14936       60.62265       44.06481
H         66.41438       59.04246       44.47664
N         64.23454       61.46402       44.99997
C         63.68288       62.47088       45.90532
C         62.17450       62.55723       45.83201
O         61.63794       62.71224       44.74528
C         64.25191       63.83953       45.47708
C         65.68916       63.95283       45.89868
C         66.73780       63.90647       44.96765
C         65.98056       64.09355       47.26458
C         68.06418       63.98795       45.40741
C         67.30007       64.18884       47.69879
C         68.34897       64.13224       46.77195
O         69.62967       64.21490       47.18279
H         63.88279       61.46605       44.03708
H         63.96654       62.27381       46.96125
H         63.70173       64.68202       45.95160
H         64.13255       63.94661       44.37684
H         66.53140       63.78644       43.91107
H         65.17888       64.13608       47.99267
H         68.87132       63.93656       44.68826
H         67.50240       64.30331       48.75603
H         69.86031       64.31785       48.11752
N         61.43889       62.58121       46.98758
C         60.00560       62.84860       47.01237
C         59.76688       64.13835       47.79207
O         59.99179       64.15292       48.99415
C         59.21930       61.67019       47.65311
C         59.57334       60.32564       46.97322
C         57.70194       61.94729       47.57703
C         58.94084       59.12084       47.67692
H         61.92044       62.46879       47.89182
H         59.63624       62.97119       45.98170
H         59.52192       61.59465       48.72146
H         60.67310       60.17309       47.02097
H         59.27223       60.34433       45.90302
H         57.44813       62.90061       48.07853
H         57.37024       62.00596       46.51762
H         57.11593       61.16418       48.09468
H         57.83656       59.14282       47.60798
H         59.28197       58.17841       47.20532
H         59.24458       59.09968       48.74481
N         59.32389       65.26859       47.16799
C         59.01946       66.50306       47.89460
C         57.65323       66.40459       48.56374
O         56.97810       65.40479       48.39154
C         59.08099       67.71118       46.93811
O         58.15140       67.57623       45.90098
H         59.21499       65.25477       46.14449
H         59.80127       66.67744       48.66615
H         60.10726       67.76387       46.51005
H         58.88006       68.65105       47.49763
H         58.30577       68.34015       45.28658
N         57.17232       67.41676       49.34054
C         55.82850       67.40430       49.92058
C         54.77996       67.42658       48.82294
O         53.90067       66.57675       48.81265
C         55.62713       68.61743       50.83481
H         57.77854       68.23291       49.51269
H         55.69797       66.49818       50.55460
H         56.36701       68.58963       51.66246
H         55.74914       69.56903       50.27584
H         54.60828       68.59100       51.27961
N         54.84748       68.36957       47.84110
C         53.91545       68.46420       46.72046
C         53.80688       67.14335       45.97785
O         52.70032       66.68798       45.72656
C         54.38616       69.56517       45.75734
H         55.63468       69.03682       47.87587
H         52.90744       68.75227       47.09302
H         53.67906       69.66933       44.90730
H         54.43586       70.53999       46.28937
H         55.39714       69.33383       45.35582
N         54.93069       66.46012       45.63156
C         54.93902       65.18950       44.91068
C         54.12392       64.13911       45.64774
O         53.22107       63.56410       45.05608
C         56.40528       64.74397       44.69966
C         56.58603       63.60972       43.67006
C         58.04775       63.39226       43.33340
O         58.40680       62.72248       42.22208
O         58.92070       63.96702       43.96023
H         55.83095       66.87270       45.90756
H         54.49366       65.36274       43.90564
H         56.87855       64.48114       45.67123
H         56.94360       65.62287       44.27926
H         56.08184       63.93066       42.73417
H         56.12112       62.66134       44.01597
N         54.35666       63.87526       46.96156
C         53.58108       62.91932       47.72031
H         52.50563       63.19821       47.70063
H         53.71444       61.90192       47.29860
H         53.92091       62.91523       48.77901
H         55.08907       64.39470       47.45352
Ca        60.64344       62.39360       41.89425
O         58.54059       64.23520       39.92581
H         58.29212       63.71289       39.12252
H         59.14321       64.94479       39.59109

Ca 1.0



