%chk=holoCaM.loop3.water2.frame137.chk
%nprocshared=20
%mem=10GB
%nosave
#b3lyp/svp scf=(tight,noincore,xqc) Test 
#IOP(5/87=12) Density=Current Pop=(MK,readradii) iop(6/33=2) iop(6/42=6)

holoCaM.loop3.water2.frame137 

   0  1 
C         19.90192      107.90153       94.03410
C         20.00844      107.07820       95.28097
O         20.99415      106.37633       95.45733
H         19.81649      108.97482       94.30894
H         20.80022      107.76874       93.39497
H         19.00010      107.59849       93.46336
N         19.02765      107.15049       96.22031
C         19.09745      106.43458       97.48685
C         18.91903      104.94741       97.23685
O         17.85299      104.53618       96.79831
C         18.02843      107.00206       98.43050
C         18.12668      106.60676       99.87080
O         19.05623      105.76409      100.36567
O         17.34382      107.12516      100.64408
H         18.23730      107.79171       96.04448
H         20.08839      106.65802       97.94290
H         17.01333      106.75895       98.04585
H         18.13650      108.10834       98.42644
N         19.96064      104.09330       97.42113
C         19.89637      102.67213       97.08909
C         18.98005      101.94434       98.04656
O         17.97705      101.40957       97.59161
C         21.32135      102.07884       97.06819
C         22.09784      102.66383       95.87056
C         23.60396      102.42022       95.95952
C         24.30285      102.99901       94.71841
N         25.75624      102.95662       94.86140
H         20.85728      104.49098       97.74086
H         19.48431      102.55328       96.05907
H         21.30056      100.97172       96.95831
H         21.82255      102.32495       98.02945
H         21.96229      103.76488       95.82709
H         21.68209      102.23157       94.93227
H         23.82934      101.33552       96.04624
H         23.97853      102.94069       96.86848
H         23.99528      104.05856       94.56800
H         23.99398      102.41813       93.82015
H         26.04763      103.56693       95.65995
H         26.07960      101.97663       95.02635
H         26.19507      103.32222       93.98538
N         19.24679      101.87270       99.38459
C         18.34456      101.17651      100.30011
C         16.98877      101.87159      100.39772
O         16.04433      101.25010      100.86401
C         18.98265      100.98406      101.69084
C         19.18449      102.27488      102.42830
O         20.30754      102.65703      102.71419
O         18.11634      102.99270      102.81588
H         20.11607      102.29447       99.74464
H         18.19043      100.15631       99.88054
H         19.96011      100.47091      101.55703
H         18.33826      100.33048      102.31741
N         16.82260      103.16227       99.97993
C         15.54116      103.83851       99.95907
C         14.93191      104.01350      101.32773
O         13.85706      103.47503      101.55297
H         17.62818      103.69014       99.61970
H         14.85306      103.26143       99.30404
H         15.66140      104.84839       99.50961
N         15.51976      104.81651      102.26496
C         14.89395      105.12596      103.54791
C         14.42581      106.58129      103.60947
O         13.80959      106.95219      104.59814
C         15.82248      104.73163      104.72708
C         16.81402      105.79339      105.25135
N         17.63109      105.31283      106.35765
O         17.58320      106.51934      104.33486
H         16.40860      105.26909      102.03104
H         13.98206      104.49817      103.65231
H         16.32538      103.76752      104.50664
H         15.16279      104.54518      105.60321
H         16.99466      105.01351      107.13106
H         18.18136      106.12283      106.72581
N         14.68834      107.46048      102.59111
C         14.28866      108.85892      102.57875
C         15.47613      109.80389      102.69615
O         15.25336      111.00635      102.68864
H         15.21298      107.14859      101.76844
H         13.61141      109.08519      103.43000
H         13.72937      109.05676      101.63958
N         16.74257      109.34121      102.91948
C         17.85192      110.18404      103.35806
C         19.15351      109.79342      102.67609
O         19.51046      108.62361      102.69443
C         18.01051      109.97529      104.87835
C         16.75480      110.40164      105.59932
C         15.83600      109.44040      106.05085
C         16.47404      111.76400      105.79196
C         14.65020      109.83444      106.67448
C         15.29529      112.15652      106.43379
C         14.37623      111.19133      106.87214
O         13.22900      111.55449      107.47986
H         16.89279      108.32905      102.97259
H         17.64102      111.26373      103.19015
H         18.87944      110.53566      105.28795
H         18.20300      108.89751      105.06267
H         16.02361      108.38753      105.89603
H         17.17085      112.51982      105.45091
H         13.94187      109.08298      106.99967
H         15.09467      113.20979      106.58397
H         13.00102      112.48176      107.63694
N         19.95802      110.74783      102.13115
C         21.28832      110.48487      101.58566
C         22.31329      111.18885      102.46150
O         22.17759      112.37791      102.71756
C         21.36978      110.93768      100.09991
C         20.41877      110.05111       99.25128
C         22.82170      110.84639       99.57648
C         20.36380      110.42716       97.77026
H         19.64086      111.72975      102.15473
H         21.52523      109.39671      101.60180
H         21.05217      112.00194      100.02962
H         19.38650      110.13805       99.65248
H         20.72944      108.98505       99.33113
H         22.90027      111.21654       98.53563
H         23.49848      111.49419      100.17153
H         23.19492      109.80199       99.62295
H         19.63444      109.77086       97.25268
H         20.04095      111.48220       97.65286
H         21.34436      110.27769       97.27523
N         23.40124      110.50160      102.91295
C         24.44246      111.07261      103.76070
C         25.72873      111.25153      102.97352
O         25.75332      110.95221      101.79044
C         24.66328      110.13685      104.96479
O         25.11449      108.88298      104.52078
H         23.52285      109.52365      102.60714
H         24.14183      112.07521      104.13539
H         23.69677      110.03041      105.50853
H         25.41438      110.56358      105.66274
H         24.91931      108.23349      105.24464
N         26.84652      111.74973      103.57180
C         28.13170      111.87121      102.88933
C         28.64176      110.50343      102.47061
O         28.98732      110.32432      101.31103
C         29.16138      112.53873      103.80768
H         26.78537      112.03834      104.56047
H         28.02310      112.52674      101.99549
H         30.13075      112.64780      103.27467
H         28.80816      113.55221      104.09457
H         29.32386      111.94231      104.73025
N         28.69204      109.48224      103.37659
C         29.19223      108.13881      103.07795
C         28.39920      107.38089      102.00868
O         28.80413      106.27408      101.67982
C         29.21241      107.30625      104.36792
H         28.38230      109.68495      104.34002
H         30.24126      108.23689      102.72112
H         29.82949      107.81594      105.13871
H         28.18056      107.17970      104.76207
H         29.65362      106.30356      104.18409
N         27.29639      107.90370      101.39990
C         26.56014      107.24012      100.33169
C         26.81012      107.98352       99.03406
O         27.31356      107.37857       98.09724
C         25.05757      107.19639      100.67170
C         24.77937      106.33007      101.90746
C         23.32076      106.34603      102.26304
O         22.48356      105.94965      101.46761
O         22.93165      106.79020      103.47238
H         26.96295      108.83133      101.67185
H         26.91391      106.19456      100.18466
H         24.49782      106.77370       99.80816
H         24.68959      108.22939      100.85371
H         25.36152      106.71075      102.77374
H         25.09307      105.28297      101.70589
N         26.51701      109.30663       98.91058
C         26.79921      110.05123       97.70393
H         26.50646      111.11437       97.83964
H         27.88767      110.01233       97.48243
H         26.22906      109.62643       96.85190
H         26.09877      109.81188       99.69952
Ca        18.78319      105.61561      102.61274
O         20.73833      107.78852      105.55616
H         20.66528      107.39959      104.64915
H         20.95773      108.74149      105.40084
O         20.34938      104.48121      105.16605
H         19.76575      103.71129      105.38367
H         20.62701      104.83883      106.04643

Ca 1.0



