%chk=holoCaM-CaMKII.loop3.water2.frame179.chk
%nprocshared=20
%mem=10GB
%nosave
#b3lyp/svp scf=(tight,noincore,xqc) Test 
#IOP(5/87=12) Density=Current Pop=(MK,readradii) iop(6/33=2) iop(6/42=6)

holoCaM-CaMKII.loop3.water2.frame179 

   0  1 
C        100.42609       63.64529       20.62663
C         99.47366       63.13142       21.66830
O         98.49450       63.80046       21.95339
H        101.27362       62.94414       20.47047
H         99.89425       63.77699       19.66177
H        100.84026       64.62290       20.95281
N         99.71531       61.94998       22.29650
C         98.88213       61.39266       23.35141
C         99.69224       61.39871       24.63339
O        100.10261       60.35704       25.12527
C         98.37054       59.99644       22.93096
C         97.72498       59.27798       24.08813
O         98.18793       58.21418       24.45466
O         96.69611       59.82258       24.76410
H        100.56374       61.42102       22.04100
H         97.97783       62.01043       23.54963
H         99.22271       59.38001       22.57216
H         97.64710       60.10969       22.09446
N         99.93115       62.58718       25.24911
C        100.63861       62.69896       26.52070
C         99.84120       62.11026       27.69200
O        100.38018       62.08970       28.78985
C        100.96521       64.18233       26.81337
C        101.88564       64.78720       25.73566
C        102.17432       66.26829       26.01190
C        103.14296       66.89225       24.98988
N        102.60488       66.89586       23.62680
H         99.58221       63.44271       24.78981
H        101.60367       62.15057       26.43814
H        101.48496       64.26221       27.79372
H        100.01658       64.76150       26.87156
H        101.40445       64.69966       24.74276
H        102.84240       64.22079       25.71727
H        102.63681       66.35943       27.01880
H        101.22119       66.84147       26.01322
H        104.11293       66.34773       25.00780
H        103.33573       67.94330       25.29915
H        101.68025       67.38392       23.60276
H        103.27065       67.40589       23.00245
H        102.50684       65.92288       23.26002
N         98.56563       61.63013       27.55263
C         97.76962       61.09438       28.65847
C         97.42991       59.60889       28.47589
O         96.75819       59.05461       29.33469
C         96.53248       61.99254       28.86662
C         95.65448       62.09596       27.65429
O         95.50625       63.16927       27.09277
O         95.01779       61.01251       27.18843
H         98.10728       61.66170       26.63235
H         98.34134       61.14477       29.61061
H         96.89862       63.01160       29.12312
H         95.92896       61.62711       29.72511
N         97.94313       58.87817       27.44341
C         97.84470       57.42824       27.33253
C         96.48467       56.84093       26.99561
O         96.43639       55.62283       26.88790
H         98.55698       59.34131       26.76598
H         98.20915       56.97448       28.27917
H         98.54587       57.08734       26.54318
N         95.33834       57.57312       26.85144
C         94.04245       56.90335       26.70226
C         93.84818       56.21953       25.35382
O         92.99127       55.35100       25.26700
C         92.85161       57.82043       27.05132
C         92.50333       58.83722       25.99153
N         91.26119       58.86254       25.45320
O         93.33364       59.65039       25.62377
H         95.37226       58.59028       26.97938
H         94.02788       56.11554       27.48959
H         93.06981       58.33927       28.00963
H         91.96244       57.17539       27.22174
H         90.53737       58.19300       25.75257
H         91.01393       59.56188       24.74023
N         94.55897       56.59087       24.24978
C         94.42465       55.93912       22.95509
C         93.80125       56.82672       21.89961
O         93.79354       56.41029       20.74965
H         95.22522       57.37452       24.31434
H         93.80566       55.01763       23.01132
H         95.44132       55.63399       22.62532
N         93.21377       58.02520       22.19986
C         92.59655       58.88306       21.18926
C         93.29493       60.26094       21.23445
O         94.65126       60.04147       21.33760
C         91.07019       58.98647       21.43079
C         90.40201       57.62661       21.41757
C         90.56882       56.72826       22.48915
C         89.60306       57.24141       20.32762
C         89.96569       55.46888       22.46156
C         89.00531       55.97746       20.29922
C         89.18780       55.08565       21.36586
O         88.62272       53.86174       21.34875
H         93.18257       58.34694       23.17752
H         92.75120       58.45564       20.17418
H         90.63016       59.60332       20.62212
H         90.83999       59.49726       22.38898
H         91.16136       56.99743       23.35226
H         89.45542       57.91162       19.49018
H         90.10692       54.78926       23.29294
H         88.40422       55.69136       19.44564
H         88.08575       53.55330       20.60506
N         93.04264       61.11866       20.06603
C         93.51761       62.51473       20.30502
C         92.48494       63.55322       19.85310
O         91.50313       63.21639       19.20441
C         94.89230       62.82228       19.59429
C         94.80339       62.53540       18.07235
C         96.10289       62.11085       20.22332
C         96.08928       62.84150       17.30022
H         92.01249       61.10425       19.92545
H         93.62201       62.69327       21.40147
H         95.10866       63.90192       19.74421
H         93.99071       63.15353       17.63609
H         94.55299       61.46464       17.90779
H         97.04992       62.54469       19.84326
H         96.11262       62.25723       21.32420
H         96.13628       61.03917       19.95398
H         96.91832       62.17771       17.62412
H         95.92272       62.65059       16.21962
H         96.38536       63.90185       17.44054
N         92.65759       64.86072       20.19466
C         91.73445       65.92432       19.81952
C         92.45261       66.98143       19.00126
O         93.64506       66.85835       18.76679
C         91.12730       66.53330       21.09607
O         92.13129       67.10260       21.89123
H         93.47479       65.11758       20.76817
H         90.89986       65.52623       19.20276
H         90.61110       65.73317       21.67069
H         90.37801       67.30793       20.81942
H         91.67107       67.66453       22.56720
N         91.77688       68.06827       18.53957
C         92.42181       69.17114       17.83554
C         93.45373       69.83527       18.72953
O         94.58621       70.01583       18.30549
C         91.37478       70.20659       17.41129
H         90.76282       68.12578       18.72078
H         92.90743       68.79665       16.90610
H         90.62976       69.73251       16.73706
H         90.84335       70.62224       18.29389
H         91.86333       71.03860       16.86017
N         93.12218       70.19215       20.00350
C         94.03381       70.84340       20.93960
C         95.33003       70.07528       21.09959
O         96.38742       70.66948       20.93979
C         93.35825       70.99099       22.30945
H         92.16819       69.97059       20.32947
H         94.26953       71.86498       20.56653
H         94.03663       71.51169       23.01874
H         92.42669       71.58797       22.21358
H         93.09888       69.99537       22.73071
N         95.32352       68.74638       21.39788
C         96.54404       67.96358       21.57539
C         97.41297       68.05791       20.33291
O         98.54481       68.51149       20.43398
C         96.21818       66.48557       21.88645
C         95.45590       66.30907       23.21169
C         95.13757       64.86266       23.46453
O         93.97688       64.49782       23.56156
O         96.12839       63.96293       23.60153
H         94.40974       68.28029       21.48007
H         97.11678       68.37522       22.43739
H         97.17327       65.92696       21.95991
H         95.62449       66.05351       21.05357
H         94.50541       66.87914       23.18992
H         96.07028       66.69544       24.05283
N         96.93488       67.67861       19.11810
C         97.71061       67.80565       17.90486
H         98.63330       67.19286       17.97535
H         97.11163       67.45641       17.03669
H         97.98018       68.87105       17.73985
H         95.98140       67.30701       19.04606
Ca        95.10283       60.58403       23.45436
O         91.60948       62.08358       23.72370
H         91.04305       62.05377       24.53552
H         91.03155       62.49718       23.03456
O         92.65790       63.48249       26.28910
H         92.86452       63.77596       27.21161
H         92.30847       64.29445       25.84331

Ca 1.0



