%chk=holoCaM-CaMKII.loop4.water2.frame52.chk
%nprocshared=20
%mem=10GB
%nosave
#b3lyp/svp scf=(tight,noincore,xqc) Test 
#IOP(5/87=12) Density=Current Pop=(MK,readradii) iop(6/33=2) iop(6/42=6)

holoCaM-CaMKII.loop4.water2.frame52 

   -3  1 
C          5.90480       52.05806       69.39036
C          6.63219       51.59251       68.16504
O          7.56338       52.25796       67.73850
H          5.08283       51.36156       69.66176
H          6.61338       52.11389       70.24270
H          5.46946       53.06094       69.20304
N          6.26702       50.43697       67.55036
C          6.94431       49.91399       66.37380
C          6.74542       50.84629       65.17821
O          5.61324       51.17022       64.84926
C          6.40047       48.51096       66.05881
C          7.18756       47.79059       65.00921
O          6.81089       46.69316       64.65153
O          8.31622       48.30701       64.48758
H          5.49240       49.89006       67.95879
H          8.02521       49.79337       66.61952
H          5.33824       48.58742       65.74178
H          6.45090       47.87989       66.97411
N          7.82018       51.27114       64.46029
C          7.76611       52.16225       63.30148
C          8.01098       51.37999       62.00600
O          7.31905       51.65057       61.03427
C          8.78486       53.34428       63.46992
C          8.44952       54.17431       64.74105
C          8.80249       54.24376       62.21533
C          9.40047       55.34870       65.00907
H          8.73329       50.91080       64.74395
H          6.75474       52.61870       63.20833
H          9.80727       52.92742       63.57984
H          8.50157       53.50790       65.62622
H          7.41566       54.57612       64.66590
H          7.80909       54.71067       62.05049
H          9.57083       55.03843       62.29974
H          9.08454       53.66091       61.31466
H         10.44884       54.99700       65.09637
H          9.33603       56.11728       64.21198
H          9.11395       55.84668       65.95983
N          8.95591       50.39847       61.91266
C          9.30145       49.71401       60.65684
C          8.63458       48.35095       60.47619
O          8.89199       47.71081       59.46576
C         10.83917       49.62350       60.52371
C         11.50380       48.79850       61.60093
O         12.72082       48.78337       61.67864
O         10.76768       48.14148       62.52111
H          9.46838       50.14499       62.76567
H          8.94710       50.32451       59.79702
H         11.23613       50.66125       60.58846
H         11.11933       49.21582       59.52875
N          7.71604       47.87293       61.35815
C          6.96562       46.64417       61.14749
C          7.79652       45.38242       61.23549
O          7.75623       44.57543       60.31802
H          7.46234       48.44075       62.17615
H          6.42949       46.69540       60.17433
H          6.19558       46.56790       61.94472
N          8.51267       45.11908       62.36135
C          9.16492       43.84298       62.65254
C          8.60565       43.23137       63.94574
O          9.17033       42.26648       64.44188
C         10.70128       44.01332       62.68186
C         11.26089       44.96588       63.70214
O         10.46756       45.63578       64.55340
O         12.46722       45.13873       63.75300
H          8.55255       45.85284       63.07993
H          8.97456       43.10330       61.84356
H         11.02364       44.36523       61.67800
H         11.16370       43.01620       62.85334
N          7.45794       43.71149       64.51322
C          6.84037       43.19223       65.72447
C          7.57409       43.51054       67.01591
O          7.04472       43.14562       68.05725
H          6.92820       44.43918       64.02264
H          6.68665       42.09644       65.62614
H          5.83715       43.66387       65.82325
N          8.77017       44.16827       67.05503
C          9.48034       44.47145       68.29670
C          9.83121       45.95211       68.40974
O          9.59311       46.71245       67.47899
C         10.72513       43.56495       68.42366
C         11.75930       43.74231       67.29784
C         12.94954       42.82296       67.44835
N         13.94135       42.85071       66.52921
O         13.02585       42.04688       68.39052
H          9.21482       44.43955       66.17487
H          8.83278       44.23346       69.16909
H         10.37749       42.50817       68.42144
H         11.21906       43.75498       69.40080
H         12.11907       44.79052       67.29739
H         11.28895       43.52010       66.31840
H         13.89535       43.49218       65.72464
H         14.75618       42.22573       66.61957
N         10.37802       46.42661       69.56629
C         10.72410       47.82374       69.81819
C         12.19198       47.89731       70.22644
O         12.56248       47.20339       71.16576
C          9.82339       48.38170       70.96310
C         10.11070       49.86992       71.23381
C          8.32811       48.21805       70.63980
H         10.52228       45.76140       70.34271
H         10.54448       48.44957       68.91463
H         10.02770       47.81010       71.89642
H          9.47847       50.23727       72.07084
H         11.16942       50.02664       71.52329
H          9.89006       50.48146       70.33258
H          8.06823       47.14716       70.50570
H          7.71160       48.60318       71.48108
H          8.05823       48.77307       69.71592
N         13.07052       48.75173       69.61841
C         14.46267       48.90424       70.06044
C         14.64598       50.24068       70.76219
O         13.67459       50.96050       70.90903
C         15.48719       48.67755       68.91512
C         15.71065       49.83891       67.96993
N         14.75509       50.26133       67.12204
O         16.80143       50.39050       67.95565
H         12.71121       49.37057       68.87958
H         14.69568       48.12259       70.81516
H         15.23502       47.75440       68.35188
H         16.46880       48.48652       69.40015
H         13.84859       49.79209       67.08445
H         14.94103       51.04370       66.47717
N         15.85785       50.63935       71.23662
C         16.07431       51.89854       71.95217
C         15.61246       53.10461       71.14598
O         14.84331       53.90130       71.66440
C         17.57132       52.05296       72.29511
C         17.85657       53.35289       73.01159
C         17.29694       53.61594       74.27351
C         18.67760       54.32134       72.40985
C         17.55368       54.82911       74.91976
C         18.93086       55.53338       73.05639
C         18.36899       55.79163       74.31461
O         18.60414       56.95802       74.94840
H         16.66633       50.01705       71.08522
H         15.49770       51.87249       72.90381
H         18.15359       52.00825       71.34798
H         17.90324       51.20472       72.93193
H         16.66143       52.88446       74.75645
H         19.11556       54.14345       71.43541
H         17.11623       55.02197       75.89121
H         19.56156       56.27105       72.57661
H         19.16042       57.64955       74.56206
N         16.04569       53.29162       69.86994
C         15.67935       54.43514       69.03491
C         14.17575       54.64583       69.01900
O         13.72269       55.74994       69.28796
C         16.22866       54.20118       67.60645
C         15.93163       55.34849       66.63117
C         16.55066       55.06762       65.29004
O         15.84970       54.97114       64.29533
O         17.88588       54.92593       65.17839
H         16.65318       52.56335       69.46594
H         16.15362       55.35476       69.44456
H         15.80007       53.26204       67.19204
H         17.33164       54.07471       67.68077
H         16.34929       56.29934       67.02406
H         14.83175       55.46340       66.51272
N         13.34630       53.61470       68.72473
C         11.89212       53.73660       68.64852
C         11.32235       54.18529       69.98590
O         10.64858       55.20575       70.02535
C         11.28568       52.41642       68.10479
C         11.83967       52.20165       66.67796
C         11.39032       50.98746       65.93785
O         11.01565       51.12418       64.78809
O         11.56941       49.74049       66.40845
H         13.78644       52.69940       68.54979
H         11.63137       54.52225       67.90263
H         10.17961       52.49962       68.06017
H         11.55276       51.56301       68.76564
H         12.93605       52.13403       66.69632
H         11.58786       53.09118       66.06084
N         11.61215       53.52137       71.13469
C         11.18411       53.98733       72.43592
H         10.07701       53.99015       72.49895
H         11.59136       53.32205       73.22798
H         11.57288       55.01370       72.61595
H         12.19555       52.68519       71.09373
Ca        11.31098       48.29728       64.70172
O         13.47309       46.73360       66.26984
H         14.06689       47.50849       66.11619
H         13.95421       45.97339       65.85796
O         14.08355       49.53990       64.36576
H         13.71907       50.12363       63.65528
H         14.60328       48.84569       63.88885

Ca 1.0



