%chk=holoCaM-CaMKII.loop1.water2.frame488.chk
%nprocshared=20
%mem=10GB
%nosave
#b3lyp/svp scf=(tight,noincore,xqc) Test 
#IOP(5/87=12) Density=Current Pop=(MK,readradii) iop(6/33=2) iop(6/42=6)

holoCaM-CaMKII.loop1.water2.frame488 

   0  1 
C         72.96886       96.38139       98.59304
C         72.11304       97.35528       99.35398
O         70.96327       97.54062       98.99237
H         73.99016       96.31194       99.02535
H         72.50747       95.37238       98.62254
H         73.06074       96.71130       97.53675
N         72.61169       98.01093      100.43549
C         71.85344       98.98325      101.21953
C         71.51566      100.21001      100.37820
O         72.42894      100.79901       99.81618
C         72.69350       99.38716      102.44381
C         71.97834      100.37425      103.30688
O         70.78793      100.06062      103.85037
O         72.47971      101.46477      103.52355
H         73.58028       97.79569      100.72127
H         70.92183       98.50299      101.59638
H         73.66287       99.81979      102.10994
H         72.90785       98.48178      103.05330
N         70.22578      100.65897      100.26551
C         69.83576      101.78132       99.41088
C         69.26965      102.99063      100.16501
O         69.08570      104.00832       99.51098
C         68.78411      101.31978       98.37233
C         69.16519      100.08412       97.53954
C         70.46728      100.26031       96.74907
C         70.73234       99.05025       95.84323
N         72.01459       99.18833       95.15408
H         69.49252      100.16372      100.78028
H         70.73037      102.15648       98.87007
H         68.56986      102.16069       97.67665
H         67.83891      101.07147       98.90582
H         68.32997       99.88928       96.83124
H         69.25021       99.20164       98.20546
H         71.31381      100.36954       97.45646
H         70.40309      101.17419       96.11984
H         69.91417       98.96822       95.09334
H         70.74549       98.11555       96.44467
H         72.14603       98.37724       94.50771
H         72.03473      100.07388       94.59812
H         72.79370       99.19238       95.85249
N         68.94369      102.97747      101.49494
C         68.41277      104.16072      102.19912
C         69.26915      104.59255      103.38931
O         69.01700      105.67717      103.89685
C         66.93315      103.96968      102.60823
C         66.70442      102.63701      103.23779
O         65.95127      101.84527      102.69134
O         67.45362      102.21785      104.27006
H         69.04752      102.09805      102.01974
H         68.42636      105.04214      101.52202
H         66.30735      104.01115      101.68813
H         66.59486      104.79037      103.27604
N         70.30665      103.84812      103.86980
C         71.25401      104.34398      104.86163
C         71.28308      103.56882      106.16374
O         72.20088      103.80479      106.93715
H         70.48651      102.91720      103.47918
H         71.07921      105.41227      105.11420
H         72.26101      104.28392      104.39655
N         70.30535      102.68768      106.52321
C         70.31433      102.00217      107.82066
C         71.36143      100.88952      107.92521
O         71.51795      100.34522      109.00980
C         68.91477      101.44955      108.16941
C         68.34779      100.54090      107.11473
O         67.25531      100.78427      106.63011
O         69.03518       99.46908      106.68703
H         69.49636      102.57313      105.89760
H         70.54692      102.75395      108.60879
H         68.21581      102.30363      108.30999
H         68.96819      100.90428      109.13661
N         72.09985      100.48257      106.85666
C         73.09209       99.42024      106.91736
C         72.48993       98.07700      107.28247
O         72.95859       97.46764      108.22882
H         71.96719      100.94627      105.95307
H         73.89061       99.69836      107.64059
H         73.56483       99.31760      105.91636
N         71.49158       97.53725      106.52548
C         70.87565       96.21643      106.72627
C         70.00953       95.88463      105.50576
O         69.08229       96.61981      105.19456
C         70.01137       96.07152      108.01771
C         70.77265       95.83243      109.33148
O         69.10682       97.13188      108.15647
H         71.19504       98.08732      105.70441
H         71.68066       95.45098      106.77154
H         69.42468       95.13328      107.89647
H         69.61535       97.90385      108.52024
H         70.04190       95.59157      110.13298
H         71.46109       94.96695      109.22264
H         71.32753       96.72027      109.67819
N         70.30911       94.79180      104.74613
C         69.64406       94.45099      103.48728
C         68.23411       93.92009      103.74870
O         68.08287       93.05650      104.60400
C         70.44391       93.36423      102.68300
C         71.96218       93.68832      102.54552
C         69.82361       93.22060      101.27257
C         72.75860       92.55318      101.89271
H         71.08930       94.20516      105.06537
H         69.63209       95.35817      102.84070
H         70.35841       92.39836      103.22925
H         72.43050       93.81238      103.53842
H         72.11378       94.63408      101.98226
H         70.29834       92.41413      100.68400
H         68.75492       92.95778      101.32872
H         69.92277       94.17643      100.70974
H         72.47253       92.39830      100.83477
H         73.84038       92.79997      101.91182
H         72.60637       91.60732      102.45777
N         67.18238       94.29615      102.96448
C         65.84330       93.71401      103.04696
C         65.52149       92.96594      101.76221
O         66.32889       92.96862      100.84557
C         64.77846       94.81296      103.29641
C         64.99850       95.51425      104.64411
O         64.74329       95.71996      102.21719
H         67.35547       94.96814      102.20939
H         65.78723       92.97654      103.87754
H         63.77269       94.34747      103.36122
H         65.10990       96.59608      102.49925
H         64.95474       94.77546      105.47118
H         65.98577       96.02012      104.65853
H         64.20014       96.27026      104.80451
N         64.34986       92.29522      101.62159
C         63.93732       91.63132      100.38402
C         63.75991       92.65582       99.26692
O         64.22596       92.43461       98.16017
C         62.62044       90.84310      100.59125
C         62.79654       89.71963      101.62368
O         61.58987       91.70674      100.99908
H         63.70957       92.27769      102.43081
H         64.70616       90.88578      100.07552
H         62.35643       90.37458       99.61329
H         60.73290       91.25364      100.78497
H         63.60243       89.02589      101.30267
H         63.05387       90.12211      102.62522
H         61.85324       89.14273      101.71805
N         63.11984       93.82894       99.53253
C         62.88128       94.91092       98.57507
C         64.17562       95.33482       97.89426
O         64.24591       95.36267       96.67337
C         62.26819       96.09566       99.36881
C         61.73594       97.26888       98.53781
C         61.21004       98.35639       99.49873
C         60.40840       99.47428       98.81712
N         61.18979      100.21272       97.82759
H         62.80536       93.97233      100.50386
H         62.15227       94.56559       97.80944
H         63.02060       96.47133      100.09729
H         61.40273       95.70636       99.95023
H         60.90829       96.89395       97.89796
H         62.53530       97.69170       97.89260
H         62.06576       98.79196      100.06212
H         60.52071       97.88885      100.23628
H         60.06564      100.17938       99.60821
H         59.50539       99.04083       98.33368
H         60.60298      100.99533       97.45729
H         62.04922      100.61220       98.26884
H         61.44728       99.58953       97.02974
N         65.24738       95.66497       98.65684
C         66.54552       96.11132       98.15458
C         67.20445       95.02292       97.32452
O         67.68628       95.31014       96.23784
C         67.43739       96.52504       99.35215
C         66.78127       97.70261      100.10831
C         67.44361       98.08218      101.39547
O         67.49701       99.37548      101.71594
O         67.69703       97.25484      102.24984
H         65.12408       95.57260       99.67386
H         66.42271       97.02029       97.52277
H         68.44324       96.83565       99.00038
H         67.55831       95.65110      100.02543
H         65.74354       97.45963      100.39235
H         66.71472       98.59221       99.44357
N         67.22244       93.73557       97.76137
C         67.81728       92.65312       97.01005
H         68.91082       92.81483       96.91564
H         67.64391       91.69055       97.53958
H         67.35558       92.58544       96.00219
H         66.76364       93.50651       98.64584
Ca        67.92877      100.09589      103.79455
O         66.53566       97.80604      106.50521
H         65.54814       97.78157      106.45808
H         66.74266       97.40907      107.38634
O         65.05415       98.88382      103.98634
H         64.08031       98.84494      103.81391
H         65.19897       99.77322      104.39556

Ca 1.0



