%chk=holoCaM.loop2.water2.frame346.chk
%nprocshared=20
%mem=10GB
%nosave
#b3lyp/svp scf=(tight,noincore,xqc) Test 
#IOP(5/87=12) Density=Current Pop=(MK,readradii) iop(6/33=2) iop(6/42=6)

holoCaM.loop2.water2.frame346 

   -2  1 
C         10.90932       26.23614      107.35722
C         10.26063       26.22418      108.71425
O          9.20651       25.62884      108.87894
H         11.91677       25.77026      107.42683
H         10.30992       25.66561      106.61698
H         11.02623       27.28117      107.00064
N         10.87531       26.85315      109.75015
C         10.39350       26.83262      111.12824
C          9.05844       27.54506      111.30905
O          8.94293       28.70631      110.94288
C         11.44640       27.48870      112.03947
C         11.01963       27.47042      113.47455
O         10.90401       28.62786      114.15180
O         10.75772       26.41304      114.02425
H         11.77211       27.32501      109.55000
H         10.30037       25.77198      111.45134
H         11.62096       28.54031      111.72298
H         12.40409       26.93334      111.94991
N          8.03201       26.90947      111.95053
C          6.74259       27.52436      112.25577
C          6.40909       27.53506      113.76054
O          5.35314       28.05165      114.09912
C          5.65718       26.75091      111.49692
H          8.17436       25.93397      112.24127
H          6.72519       28.57776      111.90214
H          5.62978       25.69076      111.83226
H          4.65659       27.20334      111.66226
H          5.87139       26.76851      110.40665
N          7.20916       26.95097      114.70816
C          6.81617       26.79757      116.12350
C          7.94887       27.03653      117.13893
O          7.68754       26.92657      118.32914
C          6.20945       25.39192      116.32608
C          7.15896       24.28303      115.99697
O          8.41705       24.55527      115.61784
O          6.76738       23.12710      115.99989
H          8.05460       26.47448      114.38109
H          6.00470       27.51684      116.36838
H          5.33387       25.29687      115.64664
H          5.84857       25.26324      117.36895
N          9.21215       27.37972      116.76143
C         10.29484       27.69050      117.68969
C         10.92081       26.52261      118.44605
O         11.85384       26.78760      119.19164
H          9.40194       27.52682      115.76834
H          9.94421       28.46039      118.41043
H         11.12451       28.14045      117.10197
N         10.51283       25.22495      118.32182
C         11.15203       24.12201      119.05659
C         12.58922       23.79900      118.59329
O         13.19319       22.91159      119.18071
C         10.27299       22.84682      119.00691
C         10.12332       22.25064      117.63595
N          9.40154       21.12367      117.45450
O         10.66118       22.77830      116.68123
H          9.69705       25.01998      117.73220
H         11.19084       24.40798      120.13162
H          9.26264       23.08788      119.40264
H         10.72141       22.07305      119.66782
H          8.93787       20.65917      118.24801
H          9.31514       20.71151      116.51568
N         13.21042       24.47230      117.57790
C         14.59831       24.24046      117.18565
C         14.84240       23.04009      116.27992
O         15.99105       22.84811      115.90641
H         12.72728       25.25434      117.11982
H         15.23906       24.18738      118.09316
H         14.93990       25.12234      116.60218
N         13.84567       22.20954      115.85865
C         14.05367       21.07716      114.95138
C         13.18846       21.19223      113.69804
O         12.36019       22.08825      113.61093
C         13.73559       19.75619      115.70354
C         14.76084       19.50391      116.81024
O         12.45300       19.79487      116.28016
H         12.89577       22.37221      116.19935
H         15.10729       21.04061      114.59825
H         13.80683       18.88373      115.01667
H         11.79368       19.84420      115.54080
H         14.53496       18.54433      117.32175
H         15.78100       19.43495      116.37443
H         14.74336       20.31957      117.56317
N         13.30332       20.26244      112.70093
C         12.40017       20.19222      111.55678
C         11.34859       19.15132      111.88840
O         11.69336       18.06110      112.32608
C         13.12008       19.81672      110.22202
C         14.31415       20.74963      109.90626
C         12.09697       19.85334      109.06416
C         15.05916       20.35651      108.62036
H         13.97423       19.48895      112.82417
H         11.90547       21.17696      111.39626
H         13.51381       18.78033      110.31697
H         15.04261       20.68596      110.74126
H         13.97214       21.80325      109.81614
H         11.71100       20.88555      108.91516
H         12.53499       19.49501      108.11550
H         11.24556       19.18157      109.26521
H         15.39158       19.29730      108.67155
H         14.42718       20.49343      107.71855
H         15.95007       21.00321      108.48720
N         10.03779       19.41664      111.66216
C          8.94705       18.50553      111.98871
C          8.46611       17.85961      110.72012
O          9.01358       18.15365      109.66701
C          7.78422       19.30903      112.60314
C          8.21663       20.17048      113.73871
O          9.26227       20.99114      113.54579
O          7.56995       20.21680      114.77258
H          9.79691       20.30342      111.19523
H          9.28731       17.71393      112.69230
H          6.93599       18.65800      112.90605
H          7.41773       20.01400      111.82408
N          7.44915       16.96136      110.71433
C          6.96996       16.40762      109.46178
C          6.35899       17.51015      108.58509
O          6.77122       17.60138      107.43929
C          6.01837       15.21195      109.66627
C          5.74188       14.53673      108.34490
C          6.78658       13.91341      107.63449
C          4.44720       14.53202      107.80389
C          6.53832       13.30398      106.40362
C          4.20407       13.92240      106.56946
C          5.24815       13.30983      105.87001
H          7.02367       16.66459      111.60763
H          7.85750       15.98470      108.93917
H          5.07375       15.52283      110.14202
H          6.49113       14.46629      110.34238
H          7.79434       13.89649      108.03143
H          3.63041       15.00911      108.33079
H          7.34787       12.82903      105.86408
H          3.20575       13.92768      106.15362
H          5.05838       12.83947      104.91459
N          5.41769       18.41355      109.03697
C          4.80312       19.44761      108.19659
C          5.74390       20.51231      107.64297
O          5.27045       21.39691      106.94161
C          3.79632       20.13133      109.13439
C          3.44122       19.01647      110.09224
C          4.81594       18.42258      110.35444
H          4.27321       18.92572      107.36976
H          4.32344       20.90281      109.74602
H          2.94328       20.62171      108.61888
H          2.90345       19.34671      111.00614
H          2.82398       18.26398      109.55111
H          5.39684       19.11322      111.00141
H          4.72397       17.44822      110.85481
N          7.07225       20.51264      107.93268
C          8.01687       21.53036      107.50051
C          8.94307       20.91661      106.46787
O          9.04635       21.45711      105.37636
C          8.77147       22.06601      108.73527
C          7.78949       22.66856      109.76309
C          8.43462       23.10334      111.04685
O          9.63913       23.01368      111.21939
O          7.65476       23.56615      112.04074
H          7.45423       19.76777      108.52329
H          7.49840       22.39169      107.02137
H          9.51438       22.83471      108.42897
H          9.31638       21.22485      109.20709
H          7.03187       21.90655      110.04063
H          7.26596       23.53934      109.31262
N          9.58746       19.74155      106.71807
C         10.39070       19.03542      105.74204
H         11.40758       18.86518      106.14661
H          9.92295       18.04752      105.53995
H         10.47418       19.58535      104.78282
H          9.46810       19.28748      107.62781
Ca         9.34791       22.96760      114.44732
O         12.48283       24.04102      111.37147
H         13.06896       24.74485      110.99761
H         12.13954       23.55930      110.57843
O         12.87102       24.81479      114.51826
H         13.27240       25.70811      114.66043
H         13.47394       24.37768      113.86896

Ca 1.0



