%chk=holoCaM-CaMKII.loop1.water2.frame477.chk
%nprocshared=20
%mem=10GB
%nosave
#b3lyp/svp scf=(tight,noincore,xqc) Test 
#IOP(5/87=12) Density=Current Pop=(MK,readradii) iop(6/33=2) iop(6/42=6)

holoCaM-CaMKII.loop1.water2.frame477 

   0  1 
C         77.11371       80.18448       71.96380
C         77.53570       81.18188       72.99674
O         77.92023       82.28033       72.62568
H         76.26075       80.59170       71.38372
H         77.96555       79.98857       71.27800
H         76.80915       79.22461       72.43050
N         77.50801       80.86458       74.32222
C         77.96802       81.77858       75.36107
C         79.43001       82.07304       75.09147
O         80.24023       81.15656       75.13596
C         77.75998       81.11736       76.73447
C         78.18779       81.91108       77.92660
O         78.16181       81.36346       79.01282
O         78.64593       83.17214       77.84540
H         77.17021       79.92821       74.59431
H         77.35860       82.70894       75.31196
H         78.34470       80.17145       76.74911
H         76.68687       80.86305       76.86435
N         79.81563       83.31893       74.70319
C         81.11493       83.58610       74.10955
C         82.04561       84.13715       75.16554
O         83.05016       83.49825       75.44885
C         80.90891       84.43796       72.82253
C         82.01652       84.35243       71.74638
C         82.40929       82.90767       71.33562
C         81.24533       81.94650       70.98737
N         80.58318       82.27386       69.72626
H         79.09976       84.04848       74.64266
H         81.53088       82.61624       73.78626
H         80.68732       85.49731       73.08110
H         79.99742       84.05911       72.31333
H         82.93146       84.87435       72.09862
H         81.64806       84.89752       70.84821
H         82.96025       82.46017       72.18650
H         83.12899       82.94288       70.48963
H         80.49914       81.91160       71.80790
H         81.65985       80.91813       70.90386
H         79.79274       81.60255       69.58156
H         80.20201       83.24553       69.74134
H         81.25903       82.16032       68.93626
N         81.73828       85.27182       75.85883
C         82.54356       85.73615       76.99115
C         82.48826       84.79518       78.20519
O         83.22693       85.03482       79.15035
C         82.13546       87.16690       77.41439
C         80.72389       87.31396       77.92845
O         80.29192       88.52825       78.31672
O         79.96763       86.35868       78.00268
H         80.90624       85.81046       75.57395
H         83.60049       85.79750       76.64692
H         82.26059       87.84097       76.54008
H         82.82797       87.51612       78.21131
N         81.64834       83.71861       78.26318
C         81.61278       82.78897       79.38306
C         81.16700       83.43022       80.68220
O         81.94307       83.43016       81.62694
H         81.02867       83.51438       77.47069
H         82.62326       82.34133       79.50418
H         80.90985       81.95927       79.15328
N         79.91288       83.95482       80.81590
C         79.40255       84.53747       82.05865
C         78.23031       83.74853       82.65497
O         77.78508       84.10850       83.73547
C         79.05940       86.03128       81.84556
C         77.96701       86.33421       80.84919
O         77.66535       87.49586       80.62950
O         77.31724       85.35899       80.19397
H         79.29118       83.92847       80.00172
H         80.19749       84.50844       82.83482
H         79.98191       86.54767       81.50272
H         78.76219       86.47250       82.82121
N         77.69795       82.65678       82.03170
C         76.64383       81.81771       82.58689
C         75.36314       81.86414       81.77766
O         74.47201       81.07778       82.07095
H         78.06350       82.37409       81.12092
H         76.38945       82.10119       83.63086
H         77.02326       80.77337       82.60700
N         75.15550       82.80582       80.81274
C         73.88886       82.97922       80.10903
C         74.09648       83.17788       78.61237
O         75.22577       83.27985       78.15303
C         73.12272       84.18637       80.71696
C         72.62315       83.90050       82.14052
O         73.90783       85.35311       80.69649
H         75.88609       83.50477       80.64321
H         73.25388       82.07247       80.22555
H         72.20919       84.38243       80.11700
H         74.58899       85.28710       81.41682
H         71.94143       83.02353       82.13287
H         73.46672       83.69598       82.83202
H         72.06058       84.77921       82.52115
N         73.01213       83.21177       77.78779
C         73.05733       83.40839       76.34160
C         72.14847       84.57510       75.97954
O         70.99566       84.58490       76.39310
C         72.62461       82.09504       75.61923
C         73.68001       80.99047       75.90365
C         72.47230       82.31984       74.09789
C         73.33410       79.61674       75.32830
H         72.08199       83.05449       78.20814
H         74.08952       83.63701       75.99230
H         71.63508       81.77536       76.01610
H         73.78801       80.85877       77.00073
H         74.66540       81.30608       75.49446
H         72.12446       81.40100       73.58622
H         71.69710       83.08478       73.88938
H         73.43277       82.64851       73.64638
H         74.12849       78.89420       75.61255
H         72.36565       79.26163       75.73814
H         73.28821       79.63398       74.22120
N         72.58426       85.55036       75.13189
C         71.74896       86.64745       74.65427
C         71.38608       86.41228       73.20217
O         71.84044       85.44568       72.60905
C         72.46791       88.01639       74.81646
C         72.72737       88.37518       76.28208
O         73.65726       88.05463       74.06463
H         73.52208       85.45668       74.72458
H         70.78998       86.67850       75.21661
H         71.81437       88.82444       74.42720
H         74.38125       87.64693       74.60531
H         73.23311       89.36306       76.34397
H         71.77067       88.42687       76.84204
H         73.37895       87.61432       76.74369
N         70.53216       87.25787       72.57104
C         70.13486       87.10792       71.17534
C         71.33577       87.23454       70.25504
O         71.52867       86.37423       69.40812
C         69.05449       88.15129       70.79437
C         67.75105       87.90251       71.56746
O         69.51966       89.45397       71.04234
H         70.14263       88.04146       73.11639
H         69.67877       86.10347       71.01925
H         68.83643       88.03013       69.70735
H         68.91014       90.07498       70.56501
H         67.37194       86.88015       71.35401
H         67.89920       88.00505       72.66226
H         66.97830       88.63314       71.25026
N         72.18667       88.29040       70.37288
C         73.32272       88.51693       69.48325
C         74.26912       87.33369       69.47778
O         74.65326       86.89308       68.40304
C         74.06311       89.82866       69.83758
C         73.11847       91.03686       69.67806
C         73.83412       92.38620       69.77327
C         72.81309       93.52083       69.58185
N         73.46235       94.82914       69.56154
H         72.01435       88.95733       71.13803
H         72.94751       88.64489       68.44313
H         74.90642       89.94549       69.12100
H         74.48268       89.79516       70.86809
H         72.31969       91.00309       70.44772
H         72.64288       90.98231       68.67444
H         74.60205       92.44212       68.97093
H         74.33533       92.49237       70.76010
H         72.06644       93.48934       70.40727
H         72.27198       93.37683       68.61948
H         72.73139       95.56683       69.43631
H         73.96780       94.99754       70.46074
H         74.13151       94.88093       68.75929
N         74.63959       86.73025       70.63853
C         75.50664       85.55378       70.68260
C         74.89829       84.42584       69.86269
O         75.54871       83.95733       68.93875
C         75.77976       85.13231       72.14316
C         76.52785       86.26113       72.88169
C         76.83527       85.93460       74.30407
O         77.97060       86.07210       74.72449
O         75.85251       85.57877       75.14691
H         74.25302       87.10818       71.51572
H         76.49285       85.80924       70.23300
H         76.40987       84.22024       72.14774
H         74.82256       84.89473       72.65895
H         75.91510       87.17847       72.89745
H         77.47578       86.49465       72.34968
N         73.63043       83.99015       70.10098
C         72.95370       82.99972       69.28608
H         72.05284       83.46219       68.82735
H         73.59385       82.61328       68.46535
H         72.63327       82.14823       69.92022
H         73.09649       84.40893       70.86950
Ca        77.39708       84.94580       77.28162
O         77.02071       88.35881       76.89309
H         77.64413       88.03226       77.58930
H         77.26180       89.31095       76.77024
O         75.05840       86.83175       78.56450
H         74.16270       86.41884       78.47868
H         74.87528       87.79301       78.71629

Ca 1.0



