%chk=holoCaM.loop1.water2.frame110.chk
%nprocshared=20
%mem=10GB
%nosave
#b3lyp/svp scf=(tight,noincore,xqc) Test 
#IOP(5/87=12) Density=Current Pop=(MK,readradii) iop(6/33=2) iop(6/42=6)

holoCaM.loop1.water2.frame110 

   0  1 
C        -20.84962        2.53633       88.46637
C        -21.58452        3.10100       87.28146
O        -22.80355        3.04639       87.23698
H        -20.24249        3.33141       88.94942
H        -21.55129        2.11198       89.21410
H        -20.16571        1.72848       88.12478
N        -20.87288        3.65863       86.26830
C        -21.44634        4.19453       85.03207
C        -22.18854        3.09887       84.26286
O        -21.58740        2.07760       83.96161
C        -20.28737        4.82352       84.22018
C        -20.60076        5.19972       82.80257
O        -19.94105        4.68535       81.91449
O        -21.58573        6.04634       82.44825
H        -19.84686        3.68682       86.38925
H        -22.15715        5.00896       85.26680
H        -19.45288        4.08668       84.17233
H        -19.91469        5.71738       84.76621
N        -23.50360        3.26403       83.90339
C        -24.29349        2.25752       83.18206
C        -24.68973        2.69136       81.76556
O        -25.30121        1.89218       81.06963
C        -25.59398        1.93177       83.95233
C        -25.35638        1.31140       85.33494
C        -26.65937        0.85665       86.02725
C        -27.39502       -0.25809       85.25355
N        -28.53902       -0.76779       86.00743
H        -23.96858        4.15157       84.14373
H        -23.70273        1.32398       83.06372
H        -26.15249        1.20242       83.33564
H        -26.21784        2.84880       84.05940
H        -24.85533        2.06097       85.98220
H        -24.68689        0.43072       85.23388
H        -27.34013        1.72357       86.17689
H        -26.37993        0.46043       87.02756
H        -26.69079       -1.09701       85.05887
H        -27.76544        0.12397       84.27921
H        -29.00932       -1.51408       85.44472
H        -28.21701       -1.18281       86.91150
H        -29.22426        0.00051       86.19008
N        -24.39284        3.92304       81.27262
C        -24.75463        4.38648       79.92487
C        -23.52372        4.76005       79.10322
O        -23.69457        5.16213       77.95996
C        -25.80422        5.54462       79.97808
C        -25.44273        6.73198       80.83885
O        -24.29210        6.69403       81.52063
O        -26.23128        7.64929       80.99398
H        -23.87337        4.55164       81.88855
H        -25.24970        3.57014       79.35467
H        -26.74382        5.12203       80.39578
H        -26.02518        5.88842       78.94372
N        -22.25229        4.61044       79.58239
C        -21.06457        4.89172       78.79053
C        -20.84861        6.35676       78.46428
O        -19.87972        6.63809       77.77277
H        -22.09974        4.21530       80.51845
H        -21.11656        4.30563       77.84708
H        -20.16671        4.54651       79.34522
N        -21.68366        7.34792       78.89820
C        -21.49288        8.74447       78.51104
C        -20.20986        9.36484       79.06722
O        -19.84820       10.43694       78.60111
C        -22.74087        9.59031       78.85142
C        -23.07494        9.66741       80.31537
O        -24.06619       10.28229       80.67203
O        -22.31162        9.05609       81.23681
H        -22.50553        7.10473       79.46509
H        -21.41013        8.75764       77.40077
H        -23.61397        9.14010       78.32964
H        -22.60461       10.62251       78.46380
N        -19.46744        8.76216       80.04456
C        -18.17203        9.25464       80.49201
C        -18.14622        9.70457       81.94008
O        -17.05505        9.92015       82.44420
H        -19.80524        7.89119       80.47926
H        -17.80791       10.10585       79.87519
H        -17.44388        8.42591       80.35933
N        -19.29031        9.96856       82.64009
C        -19.28992       10.52849       83.99575
C        -20.25780        9.77383       84.90828
O        -20.91202        8.84916       84.45567
C        -19.63437       12.04059       83.92986
C        -18.58969       12.83820       83.13064
O        -20.92350       12.25855       83.41406
H        -20.19267        9.87290       82.16213
H        -18.27816       10.44296       84.44917
H        -19.61025       12.45723       84.95833
H        -20.90547       12.06576       82.44055
H        -18.55876       12.51098       82.06971
H        -18.84208       13.91897       83.15390
H        -17.58030       12.70256       83.57485
N        -20.37893       10.12289       86.22898
C        -21.27492        9.45397       87.17517
C        -22.27006       10.45958       87.75717
O        -21.86623       11.39533       88.43131
C        -20.42701        8.74329       88.27711
C        -19.67450        7.54662       87.63067
C        -21.29404        8.26835       89.46114
C        -18.73260        6.80119       88.57620
H        -19.79224       10.88626       86.59367
H        -21.86516        8.66966       86.66046
H        -19.69427        9.47484       88.68590
H        -19.06049        7.91336       86.78106
H        -20.41491        6.81779       87.23006
H        -21.81035        9.12444       89.93991
H        -22.04353        7.52686       89.12751
H        -20.67146        7.82278       90.26164
H        -18.22949        5.98412       88.01688
H        -17.96083        7.49256       88.97358
H        -19.28256        6.33067       89.41570
N        -23.60860       10.29785       87.52505
C        -24.65647       11.17256       88.06469
C        -24.88920       10.93537       89.55734
O        -24.24645       10.08072       90.14454
C        -25.99792       10.95490       87.30179
C        -25.89288       11.33639       85.82027
O        -26.47839        9.64209       87.46977
H        -23.88689        9.52813       86.90220
H        -24.35974       12.23303       87.90687
H        -26.77132       11.63795       87.70707
H        -26.05607        9.05308       86.79356
H        -25.56678       12.39364       85.71863
H        -25.16796       10.68455       85.30305
H        -26.88233       11.22316       85.32987
N        -25.83857       11.65922       90.22278
C        -26.21420       11.46144       91.62426
C        -26.76694       10.05913       91.84845
O        -26.29278        9.37294       92.74167
C        -27.27559       12.51850       92.03678
C        -27.68430       12.39564       93.51108
O        -26.74799       13.80282       91.82110
H        -26.33454       12.39407       89.69768
H        -25.31973       11.61705       92.26913
H        -28.18211       12.37222       91.40164
H        -27.51764       14.41013       91.66238
H        -28.43866       13.17347       93.75606
H        -28.13954       11.40474       93.71909
H        -26.80167       12.53599       94.17047
N        -27.79434        9.58616       91.08627
C        -28.40947        8.27037       91.27200
C        -27.38845        7.14596       91.17099
O        -27.31319        6.33598       92.08460
C        -29.61960        8.08630       90.31972
C        -29.31344        8.09305       88.80994
C        -30.61937        8.14380       88.00259
C        -30.35534        8.17375       86.49104
N        -31.60767        8.32851       85.74907
H        -28.16369       10.20608       90.35066
H        -28.84395        8.23455       92.29673
H        -30.31889        8.92334       90.53948
H        -30.14449        7.13748       90.56873
H        -28.73269        7.18651       88.53633
H        -28.72516        8.99341       88.54605
H        -31.16935        9.06950       88.28296
H        -31.25476        7.26485       88.24805
H        -29.85284        7.23006       86.18309
H        -29.68401        9.02639       86.24391
H        -31.40355        8.32999       84.72369
H        -32.25965        7.54006       85.96574
H        -32.06138        9.23744       86.00059
N        -26.52476        7.07415       90.12198
C        -25.47314        6.06150       90.00491
C        -24.53532        6.08721       91.20411
O        -24.09588        5.02672       91.62621
C        -24.66925        6.27781       88.70911
C        -25.52430        5.99674       87.46102
C        -24.79681        6.30376       86.18598
O        -25.35229        6.11106       85.11720
O        -23.55183        6.81470       86.20348
H        -26.59164        7.80468       89.39903
H        -25.93021        5.04742       89.95723
H        -23.79658        5.58588       88.68487
H        -24.29597        7.32529       88.69353
H        -26.44642        6.61148       87.47073
H        -25.81522        4.92326       87.46049
N        -24.22755        7.25585       91.83013
C        -23.40146        7.34791       93.01680
H        -22.54896        8.03016       92.82047
H        -24.00679        7.76544       93.85039
H        -23.00465        6.36215       93.33650
H        -24.62387        8.12786       91.46948
Ca       -23.16427        7.40409       83.32403
O        -26.18534        8.67559       83.84911
H        -26.33307        9.22210       83.03753
H        -27.00558        8.80725       84.38740
O        -23.28503       10.59228       83.59395
H        -23.99461       11.15480       83.19392
H        -23.00885       11.08415       84.40749

Ca 1.0



