%chk=holoCaM.loop1.water2.frame366.chk
%nprocshared=20
%mem=10GB
%nosave
#b3lyp/svp scf=(tight,noincore,xqc) Test 
#IOP(5/87=12) Density=Current Pop=(MK,readradii) iop(6/33=2) iop(6/42=6)

holoCaM.loop1.water2.frame366 

   0  1 
C          9.13952        6.66183       92.33376
C          8.41485        7.24671       93.50579
O          8.83704        8.28306       93.99365
H         10.18897        6.44812       92.63023
H          8.66730        5.71683       91.99517
H          9.14073        7.38889       91.49536
N          7.30467        6.64881       94.01995
C          6.63522        7.17949       95.19707
C          7.53380        7.04285       96.40911
O          8.10025        5.97920       96.61987
C          5.27998        6.50510       95.44639
C          4.58959        7.19983       96.59124
O          4.15815        6.55982       97.53370
O          4.49285        8.54962       96.57391
H          6.92899        5.80340       93.56318
H          6.40440        8.25093       95.00294
H          5.38379        5.41427       95.63880
H          4.65643        6.64255       94.53619
N          7.67596        8.08726       97.26821
C          8.58957        8.08658       98.39938
C          7.85458        8.01053       99.73650
O          8.52922        8.03269      100.75649
C          9.46447        9.36268       98.31751
C         10.20128        9.54322       96.97192
C         11.22625        8.44063       96.67639
C         11.92799        8.68512       95.33040
N         12.89478        7.62680       95.04386
H          7.11600        8.93564       97.10901
H          9.25007        7.19472       98.36911
H         10.20652        9.37122       99.14449
H          8.80046       10.24726       98.44694
H         10.72819       10.52225       96.99527
H          9.46011        9.58237       96.14838
H         10.71640        7.45597       96.63137
H         11.98476        8.42077       97.48821
H         12.44855        9.66790       95.34554
H         11.17895        8.71316       94.51375
H         13.32586        7.80125       94.10722
H         13.64683        7.62412       95.77013
H         12.41587        6.69681       95.02519
N          6.49304        7.89098       99.82294
C          5.76564        7.82251      101.09218
C          4.95675        6.53253      101.24821
O          4.29142        6.39349      102.26614
C          4.81282        9.02897      101.18063
C          5.56293       10.32788      101.09519
O          6.48498       10.63949      102.02534
O          5.34131       11.10635      100.18332
H          5.93098        7.87252       98.96234
H          6.46657        7.87073      101.95386
H          4.25676        9.01334      102.14262
H          4.07129        8.96379      100.35665
N          4.94429        5.54808      100.30093
C          4.13649        4.33522      100.40975
C          2.63219        4.55109      100.25494
O          1.90868        3.56538      100.24846
H          5.54965        5.63126       99.47263
H          4.36020        3.81765      101.36681
H          4.43091        3.65581       99.58003
N          2.08745        5.78953      100.08673
C          0.66531        6.05054       99.82464
C          0.21183        5.55716       98.43180
O         -0.96307        5.70391       98.12642
C          0.39912        7.57972       99.98997
C          1.26033        8.38991       99.06222
O          1.85401        7.82783       98.16358
O          1.59391        9.66581       99.30047
H          2.71344        6.59889      100.15000
H          0.05870        5.53541      100.60178
H          0.68666        7.84548      101.03094
H         -0.67110        7.84656       99.85689
N          1.07041        4.95722       97.54580
C          0.66294        4.40791       96.25588
C          0.45199        5.42388       95.14288
O          0.11373        4.99232       94.04775
H          2.04947        4.79670       97.80835
H         -0.24652        3.78343       96.39594
H          1.46981        3.73277       95.89721
N          0.62607        6.76430       95.31869
C          0.40328        7.77108       94.27932
C          1.63230        8.66259       94.08284
O          2.59234        8.51693       94.82142
C         -0.84286        8.61002       94.65283
C         -2.10567        7.73890       94.74470
O         -0.64654        9.31229       95.85539
H          0.89023        7.09831       96.24453
H          0.20211        7.27457       93.30377
H         -1.02470        9.35746       93.85249
H         -0.69016        8.67042       96.61140
H         -2.98267        8.37371       94.98767
H         -2.28891        7.22569       93.77754
H         -2.00286        6.96997       95.54090
N          1.68958        9.58406       93.07669
C          2.84799       10.44141       92.79348
C          2.45035       11.91736       92.77550
O          1.49511       12.28262       92.10183
C          3.53754        9.97558       91.46474
C          4.34047        8.67441       91.76946
C          4.47139       11.05245       90.86797
C          5.07272        8.05874       90.57669
H          0.88522        9.64856       92.43186
H          3.62001       10.34223       93.58119
H          2.75493        9.78504       90.69754
H          3.65143        7.90423       92.17431
H          5.10738        8.89165       92.54875
H          3.90525       11.97619       90.62836
H          5.29487       11.29922       91.56091
H          4.90375       10.72007       89.90329
H          5.59775        7.13830       90.91204
H          4.35380        7.79328       89.77562
H          5.84973        8.74185       90.17657
N          3.24392       12.83385       93.41259
C          3.06537       14.28567       93.36595
C          4.12749       14.91311       92.46550
O          4.93221       14.19008       91.89627
C          3.13210       14.89458       94.79670
C          2.00399       14.39510       95.70137
O          4.39450       14.67898       95.38625
H          4.08773       12.48826       93.89024
H          2.08052       14.54169       92.91624
H          2.98481       15.99198       94.73601
H          4.41692       13.76173       95.76501
H          1.01520       14.62691       95.25220
H          2.09591       13.30559       95.84442
H          2.06773       14.89352       96.69192
N          4.16965       16.26231       92.26965
C          5.12245       16.93799       91.38389
C          6.56487       16.67547       91.78539
O          7.36810       16.36385       90.91855
C          4.87717       18.46672       91.33324
C          3.49544       18.81342       90.76538
O          5.02226       19.03016       92.61198
H          3.47597       16.83942       92.76604
H          4.98227       16.56083       90.34496
H          5.64228       18.89420       90.64062
H          5.26611       19.98376       92.48041
H          2.67908       18.43916       91.41571
H          3.39261       19.91587       90.68481
H          3.37683       18.37520       89.75179
N          6.95737       16.77087       93.08647
C          8.32204       16.50990       93.54356
C          8.76361       15.12300       93.10556
O          9.80797       14.97916       92.48513
C          8.35866       16.60223       95.09417
C          9.75187       16.46996       95.73813
C         10.62672       17.71164       95.49434
C         12.00280       17.64214       96.18248
N         11.90464       17.54451       97.64165
H          6.23957       17.00724       93.78830
H          8.99878       17.27631       93.11000
H          7.71491       15.79479       95.50690
H          7.91789       17.56682       95.42721
H         10.26196       15.54541       95.39031
H          9.58167       16.37767       96.83072
H         10.09072       18.61233       95.86721
H         10.79986       17.83617       94.40566
H         12.55491       18.57400       95.92626
H         12.58351       16.78021       95.78774
H         12.86450       17.61172       98.05093
H         11.32257       18.32577       98.02225
H         11.50111       16.62412       97.92612
N          7.98522       14.05353       93.41354
C          8.33247       12.66577       93.12338
C          8.39774       12.37370       91.63021
O          9.02962       11.39517       91.25613
C          7.29247       11.74744       93.78987
C          7.30932       11.90699       95.32593
C          6.15506       11.23543       95.99738
O          5.29092       10.67638       95.34703
O          6.04410       11.29706       97.33659
H          7.10188       14.25051       93.90707
H          9.33148       12.45175       93.56476
H          7.46898       10.67953       93.53353
H          6.29810       12.04112       93.39868
H          7.24295       12.96939       95.62835
H          8.26243       11.50305       95.71795
N          7.74812       13.14897       90.71967
C          7.80301       12.89645       89.29663
H          8.84871       12.99659       88.93707
H          7.42331       11.87766       89.07037
H          7.17208       13.63697       88.75859
H          7.18055       13.93834       91.03936
Ca         3.40672        9.93979       97.99902
O          1.11186       11.21298       96.75972
H          0.48217       11.88085       97.13033
H          0.99638       11.27474       95.77782
O          3.27033       12.97049       98.66937
H          3.36807       12.69104       99.61344
H          2.38404       13.40911       98.63896

Ca 1.0



