%chk=holoCaM.loop1.water2.frame270.chk
%nprocshared=20
%mem=10GB
%nosave
#b3lyp/svp scf=(tight,noincore,xqc) Test 
#IOP(5/87=12) Density=Current Pop=(MK,readradii) iop(6/33=2) iop(6/42=6)

holoCaM.loop1.water2.frame270 

   0  1 
C         25.00928       10.19549       51.76875
C         25.35208        9.88483       50.34660
O         25.91122       10.73998       49.67383
H         23.91507       10.10411       51.91931
H         25.53998        9.48570       52.43771
H         25.32724       11.22913       52.02692
N         25.07853        8.65535       49.82312
C         25.48386        8.30154       48.47232
C         24.70250        9.13183       47.44965
O         23.50569        8.92286       47.30549
C         25.31642        6.77726       48.22193
C         26.01009        6.35000       46.95697
O         26.68512        7.27639       46.25734
O         25.99113        5.18722       46.59450
H         24.63940        7.94386       50.42813
H         26.57345        8.52490       48.41279
H         24.23656        6.51029       48.19192
H         25.78799        6.21225       49.05492
N         25.31254       10.13594       46.75104
C         24.59549       11.03870       45.85124
C         24.38075       10.48151       44.44965
O         23.70884       11.15816       43.68163
C         25.35314       12.37899       45.68958
C         25.52883       13.21433       46.96725
C         24.18310       13.55757       47.63274
C         24.30366       14.60955       48.74634
N         24.60854       15.94095       48.21309
H         26.28851       10.35345       46.98137
H         23.59464       11.25417       46.28274
H         24.79237       13.02162       44.97438
H         26.35625       12.18369       45.24857
H         26.04478       14.14026       46.64302
H         26.18561       12.69809       47.69937
H         23.77421       12.62600       48.07971
H         23.45650       13.93220       46.87910
H         25.07158       14.30193       49.48975
H         23.32291       14.66555       49.26857
H         25.54517       15.96464       47.75401
H         23.87233       16.22728       47.52628
H         24.61240       16.63041       48.99845
N         24.90799        9.29853       44.02020
C         24.72042        8.81296       42.65092
C         23.82555        7.58407       42.61622
O         23.49433        7.13627       41.52672
C         26.06981        8.42619       42.02279
C         27.16179        9.44701       42.16300
O         28.23533        9.15021       42.92406
O         27.09858       10.51906       41.58407
H         25.45428        8.72288       44.67241
H         24.24191        9.59834       42.02680
H         25.94535        8.16624       40.94918
H         26.40202        7.51193       42.53855
N         23.42368        6.95924       43.76050
C         22.60423        5.76548       43.77444
C         23.26611        4.61271       43.05906
O         22.64511        4.03735       42.17675
H         23.71123        7.31945       44.68050
H         21.61147        5.98524       43.32520
H         22.44304        5.46277       44.83205
N         24.52500        4.21269       43.39880
C         25.17992        3.04375       42.81415
C         25.52443        1.98187       43.86047
O         25.91497        0.89576       43.45503
C         26.40619        3.45188       41.96287
C         27.34500        4.42151       42.62561
O         27.62221        5.47120       42.07085
O         27.90143        4.14426       43.81078
H         25.03471        4.76072       44.10790
H         24.48305        2.52588       42.11923
H         26.04187        3.93393       41.02966
H         26.96699        2.53929       41.66632
N         25.39971        2.19489       45.20409
C         25.63204        1.16628       46.20883
C         26.92110        1.36537       46.97947
O         27.12736        0.63933       47.94230
H         25.12160        3.11661       45.55728
H         25.67887        0.15122       45.75842
H         24.76491        1.17237       46.90399
N         27.87681        2.24901       46.56861
C         29.18619        2.38097       47.20289
C         29.52211        3.82772       47.55550
O         28.80525        4.74961       47.19139
C         30.29434        1.77103       46.27932
C         30.18048        0.24985       46.21923
O         30.25009        2.25005       44.95719
H         27.70339        2.79450       45.72053
H         29.20191        1.82634       48.16699
H         31.29729        1.99358       46.70213
H         29.82807        3.13863       44.95379
H         30.99932       -0.15584       45.58615
H         30.28247       -0.18116       47.23731
H         29.20883       -0.05877       45.78083
N         30.62717        4.06412       48.31665
C         31.11306        5.36399       48.76840
C         32.56700        5.51136       48.31726
O         33.36882        4.62648       48.58605
C         30.95773        5.42928       50.32240
C         29.46056        5.47631       50.75446
C         31.73535        6.58436       50.97755
C         28.69855        6.75608       50.36178
H         31.16026        3.24256       48.64317
H         30.53083        6.19770       48.33104
H         31.39987        4.49763       50.74080
H         29.40905        5.38914       51.86156
H         28.92185        4.60299       50.32987
H         32.82091        6.49442       50.77104
H         31.39076        7.56746       50.62036
H         31.60756        6.54857       52.08059
H         28.65299        6.89608       49.26354
H         27.65440        6.69283       50.73360
H         29.15277        7.65584       50.82470
N         32.98166        6.63673       47.66438
C         34.36070        6.88220       47.23574
C         35.08594        7.71785       48.27393
O         34.49835        8.02926       49.29127
C         34.38621        7.61623       45.86187
C         33.69501        6.82577       44.75147
O         33.85069        8.91667       45.96581
H         32.30705        7.40187       47.55382
H         34.91115        5.92054       47.13904
H         35.43918        7.72707       45.53214
H         32.86297        8.86766       45.88751
H         34.15332        5.82056       44.64362
H         32.62445        6.72591       44.99213
H         33.78479        7.37098       43.78788
N         36.36879        8.13116       48.08147
C         37.07055        9.03195       48.99853
C         36.33114       10.36044       49.12922
O         36.11817       10.80328       50.24882
C         38.52957        9.27202       48.54101
C         39.36122        7.98500       48.64761
O         38.55352        9.76086       47.22415
H         36.85508        7.82033       47.22822
H         37.12637        8.57133       50.01172
H         38.98196       10.02395       49.22964
H         39.46985       10.10599       47.06137
H         38.96016        7.18395       47.99339
H         40.41233        8.18775       48.35358
H         39.36250        7.62072       49.69788
N         35.86394       11.01888       48.02773
C         35.10588       12.27252       48.08301
C         33.92852       12.15684       49.04054
O         33.81261       12.95575       49.95932
C         34.57175       12.61372       46.66190
C         33.69214       13.87975       46.61795
C         33.00469       14.03220       45.25306
C         32.05650       15.24086       45.24446
N         31.32331       15.32609       43.98139
H         36.01659       10.57958       47.10683
H         35.77243       13.09216       48.43164
H         33.95685       11.75713       46.30889
H         35.41972       12.72861       45.95205
H         34.30653       14.77488       46.85576
H         32.88159       13.79598       47.37245
H         32.40318       13.11656       45.05622
H         33.76415       14.13911       44.44854
H         32.64030       16.17452       45.40185
H         31.32214       15.14223       46.07553
H         30.74466       14.46494       43.84465
H         30.68559       16.15440       44.01106
H         31.98823       15.43542       43.18211
N         32.99592       11.19393       48.84011
C         31.76743       11.05347       49.61456
C         32.05605       10.78710       51.08544
O         31.42571       11.40508       51.93137
C         30.90107        9.93697       48.99067
C         30.45746       10.32035       47.56198
C         29.66365        9.24010       46.89635
O         30.15350        8.14522       46.68128
O         28.42073        9.49926       46.46947
H         33.17016       10.53225       48.07014
H         31.16780       11.98922       49.54808
H         29.99156        9.77483       49.60977
H         31.48793        8.99987       48.96095
H         31.32698       10.52900       46.90843
H         29.84282       11.24540       47.61296
N         33.02347        9.90852       51.45860
C         33.36756        9.59332       52.82903
H         34.41927        9.89502       53.02270
H         32.70815       10.10394       53.55966
H         33.28389        8.49645       52.98099
H         33.57409        9.45835       50.73188
Ca        27.95017        7.46757       44.41777
O         30.70870        5.32593       44.53681
H         31.18917        5.07885       43.70675
H         31.24127        4.90685       45.26029
O         30.79654        7.68036       42.82008
H         30.75910        8.56190       42.37233
H         30.60747        7.02729       42.10012

Ca 1.0



