%chk=holoCaM-CaMKII.loop1.water2.frame413.chk
%nprocshared=20
%mem=10GB
%nosave
#b3lyp/svp scf=(tight,noincore,xqc) Test 
#IOP(5/87=12) Density=Current Pop=(MK,readradii) iop(6/33=2) iop(6/42=6)

holoCaM-CaMKII.loop1.water2.frame413 

   0  1 
C         56.66956       54.06579       41.67892
C         58.15265       53.90851       41.80857
O         58.69732       53.05462       41.13253
H         56.28977       54.89202       42.31397
H         56.42405       54.29442       40.61904
H         56.16910       53.12045       41.97140
N         58.87697       54.73315       42.61731
C         60.33452       54.71563       42.69262
C         60.86601       53.49641       43.47713
O         61.18734       53.64154       44.64937
C         60.82951       56.04449       43.33950
C         62.28885       56.25854       43.06742
O         62.87399       55.48692       42.13476
O         62.88955       57.19368       43.56820
H         58.36959       55.47898       43.11849
H         60.71088       54.71002       41.64548
H         60.61106       56.04816       44.42975
H         60.30696       56.91669       42.89167
N         60.94265       52.25338       42.91586
C         61.23977       51.04708       43.69473
C         62.71537       50.82717       44.04509
O         62.96692       49.89046       44.79135
C         60.65677       49.79729       42.99667
C         59.11897       49.86804       42.92443
C         58.51994       48.57608       42.35380
C         56.98192       48.54706       42.42762
N         56.35296       49.56573       41.58538
H         60.66437       52.13923       41.93461
H         60.70183       51.12792       44.66690
H         60.91628       48.89956       43.59971
H         61.09775       49.67736       41.98245
H         58.80835       50.73340       42.30771
H         58.72544       50.00739       43.95550
H         58.88988       47.72297       42.96345
H         58.85666       48.42756       41.30491
H         56.65505       48.67897       43.48361
H         56.63839       47.54438       42.09029
H         56.59877       50.52630       41.91253
H         56.64484       49.43849       40.58945
H         55.31452       49.45810       41.64783
N         63.73221       51.62936       43.60676
C         65.12580       51.46754       44.06533
C         65.55343       52.63293       44.96820
O         66.64896       52.58179       45.50921
C         66.10545       51.22720       42.87999
C         66.21286       52.39707       41.94439
O         66.89758       52.33957       40.93592
O         65.51273       53.49831       42.23728
H         63.49921       52.40949       42.97881
H         65.20611       50.56297       44.70571
H         65.75586       50.33828       42.31026
H         67.12018       51.00385       43.27587
N         64.71241       53.67781       45.23240
C         64.96438       54.70192       46.23112
C         66.11678       55.62995       45.93133
O         67.00286       55.74699       46.76568
H         63.79062       53.72070       44.78092
H         65.11093       54.21203       47.21865
H         64.05704       55.34013       46.31113
N         66.13231       56.38306       44.79591
C         67.10342       57.44997       44.55111
C         66.40529       58.79598       44.31703
O         67.05526       59.73200       43.87147
C         68.08630       57.05739       43.43096
C         67.44901       56.73935       42.11904
O         66.71225       57.66312       41.48208
O         67.63128       55.64785       41.60388
H         65.39489       56.22832       44.09107
H         67.75989       57.60515       45.43548
H         68.65960       56.16680       43.77155
H         68.81364       57.88333       43.27783
N         65.11081       58.99796       44.70549
C         64.43107       60.28293       44.64059
C         63.89470       60.67142       43.27574
O         63.22088       61.68962       43.22115
H         64.60818       58.24103       45.18961
H         65.07894       61.08383       45.06039
H         63.53337       60.21782       45.29452
N         64.10843       59.93306       42.14478
C         63.47860       60.26072       40.86088
C         62.70138       59.07106       40.31731
O         62.81240       57.97558       40.83530
C         64.52058       60.74451       39.82379
C         65.15025       62.08835       40.21585
O         65.50711       59.77071       39.59986
H         64.71401       59.10440       42.19062
H         62.73729       61.07809       40.99648
H         64.00630       60.92755       38.85561
H         66.15371       59.81425       40.35057
H         65.86008       62.40999       39.42412
H         64.36003       62.86285       40.31388
H         65.69812       62.00803       41.17793
N         61.86621       59.24629       39.25617
C         61.06804       58.18795       38.64491
C         61.47321       58.09186       37.18731
O         61.47368       59.10489       36.50268
C         59.55162       58.51108       38.80700
C         59.17771       58.48809       40.31449
C         58.68440       57.50519       38.01715
C         57.74188       58.92471       40.61145
H         61.77262       60.19460       38.86315
H         61.24572       57.20255       39.13191
H         59.36037       59.52743       38.39612
H         59.84169       59.18333       40.87042
H         59.33271       57.46404       40.72050
H         58.93114       57.53537       36.93618
H         58.83937       56.47002       38.39000
H         57.60825       57.75865       38.08577
H         57.57217       59.95771       40.24139
H         56.99905       58.24007       40.15632
H         57.57559       58.90972       41.70958
N         61.78288       56.88319       36.63621
C         62.16736       56.72466       35.23832
C         61.01288       56.16427       34.42886
O         59.96863       55.84280       34.97773
C         63.43641       55.83712       35.10924
C         64.65258       56.45259       35.81261
O         63.19035       54.53032       35.57039
H         61.68182       56.03931       37.21345
H         62.39059       57.71766       34.79132
H         63.71873       55.75390       34.03919
H         63.31309       54.51658       36.55398
H         64.88131       57.45019       35.38313
H         64.45270       56.56055       36.89692
H         65.53803       55.79468       35.67634
N         61.14346       56.06340       33.07750
C         60.10126       55.56932       32.18326
C         59.72701       54.14860       32.54966
O         58.54691       53.84677       32.64829
C         60.60100       55.64126       30.71901
C         59.53144       55.19196       29.71889
O         60.95665       56.96962       30.42521
H         62.03715       56.36494       32.66122
H         59.20320       56.22299       32.26414
H         61.49039       54.97226       30.61937
H         61.75592       56.93827       29.83713
H         58.63094       55.83734       29.80350
H         59.93104       55.27093       28.68603
H         59.23957       54.13591       29.89592
N         60.70048       53.22541       32.76553
C         60.43926       51.83955       33.13578
C         59.70435       51.76291       34.46643
O         58.67009       51.11205       34.52428
C         61.75737       51.03244       33.17659
C         62.41803       51.00435       31.78190
C         63.69436       50.16104       31.74354
C         64.30866       50.20868       30.33445
N         65.51942       49.39493       30.25306
H         61.67811       53.53961       32.67621
H         59.80369       51.36272       32.35484
H         61.52539       49.98646       33.47656
H         62.45629       51.46704       33.92508
H         62.68043       52.03375       31.46223
H         61.69478       50.58601       31.04746
H         63.44991       49.10980       32.01035
H         64.42814       50.55900       32.47808
H         64.55932       51.26248       30.07583
H         63.56885       49.83544       29.59116
H         65.90928       49.46307       29.28487
H         66.23440       49.74382       30.93161
H         65.29227       48.39471       30.45649
N         60.15889       52.42808       35.57088
C         59.47918       52.37328       36.87076
C         58.04771       52.91271       36.83729
O         57.34466       52.72737       37.82168
C         60.26030       53.16350       37.94472
C         61.64800       52.57810       38.24068
C         62.35704       53.37871       39.29771
O         62.74096       52.78866       40.44363
O         62.60449       54.56037       39.11955
H         61.02112       52.98334       35.47668
H         59.42328       51.30534       37.17874
H         59.68917       53.14809       38.89293
H         60.34462       54.22122       37.61705
H         62.27389       52.56591       37.32796
H         61.53154       51.53107       38.59450
N         57.54755       53.59080       35.76669
C         56.18581       54.07836       35.68217
H         55.58624       53.82836       36.58192
H         56.19604       55.18089       35.55579
H         55.69177       53.62248       34.79767
H         58.15256       53.78933       34.96785
Ca        64.89829       55.36743       41.23742
O         66.41946       56.77753       38.78655
H         67.13941       56.93337       38.12612
H         65.74088       57.46759       38.58340
O         65.87354       53.95261       38.42593
H         65.61460       53.01906       38.62800
H         66.50654       53.87828       37.66821

Ca 1.0



