%chk=holoCaM-CaMKII.loop4.water2.frame238.chk
%nprocshared=20
%mem=10GB
%nosave
#b3lyp/svp scf=(tight,noincore,xqc) Test 
#IOP(5/87=12) Density=Current Pop=(MK,readradii) iop(6/33=2) iop(6/42=6)

holoCaM-CaMKII.loop4.water2.frame238 

   -3  1 
C         70.74485        7.89787       37.37636
C         69.89913        7.38171       36.24347
O         69.12330        8.13829       35.68408
H         71.39885        8.71960       37.02001
H         70.08999        8.27225       38.19071
H         71.39102        7.09802       37.80018
N         70.01566        6.08815       35.84703
C         69.21731        5.45814       34.79318
C         67.76525        5.34522       35.27116
O         67.56128        4.73422       36.31156
C         69.84392        4.06724       34.55469
C         69.34296        3.17767       33.45949
O         69.75754        2.03378       33.45795
O         68.51119        3.54924       32.46763
H         70.72723        5.51692       36.33151
H         69.31087        6.04493       33.85959
H         69.73956        3.49761       35.50456
H         70.93369        4.19309       34.36241
N         66.71413        5.91705       34.59810
C         65.33167        5.89197       35.09987
C         64.40071        5.00467       34.27701
O         63.28330        4.79677       34.72959
C         64.77570        7.34509       35.31709
C         64.52844        8.17931       34.02886
C         65.74106        8.12744       36.22303
C         63.26327        7.81636       33.25169
H         66.90156        6.42002       33.72820
H         65.33193        5.41341       36.10303
H         63.81211        7.28678       35.87001
H         65.40692        8.12761       33.36783
H         64.38383        9.24561       34.31291
H         65.32356        9.12721       36.46958
H         65.91552        7.58453       37.17546
H         66.70636        8.28688       35.70823
H         63.15874        8.50562       32.38625
H         63.28423        6.78949       32.85367
H         62.37254        7.94545       33.90376
N         64.77506        4.42517       33.09389
C         63.92776        3.48468       32.35242
C         64.58090        2.10585       32.21428
O         63.96995        1.22681       31.62242
C         63.51178        4.07045       30.98356
C         64.61236        4.25327       29.97261
O         65.88153        3.89411       30.23737
O         64.33880        4.71055       28.87459
H         65.69904        4.63996       32.70603
H         62.97630        3.32145       32.90365
H         63.01859        5.05094       31.15717
H         62.75577        3.39364       30.52783
N         65.79378        1.82645       32.77354
C         66.41431        0.51271       32.75455
C         66.88620        0.06542       31.38696
O         66.53071       -1.02234       30.95846
H         66.28818        2.55114       33.31056
H         65.72593       -0.23343       33.20631
H         67.32251        0.55395       33.39571
N         67.77234        0.83029       30.69341
C         68.49344        0.40482       29.49703
C         70.00566        0.40699       29.76687
O         70.78651        0.34195       28.82768
C         68.09432        1.26977       28.27812
C         68.38117        2.74731       28.35558
O         68.94780        3.30775       29.43786
O         68.08406        3.45651       27.40825
H         68.01037        1.74693       31.07948
H         68.21903       -0.63596       29.21637
H         67.00218        1.14474       28.11306
H         68.61726        0.86828       27.38224
N         70.48026        0.40713       31.04899
C         71.88411        0.37706       31.43157
C         72.65067        1.67063       31.21579
O         73.81133        1.69400       31.60480
H         69.80895        0.33393       31.82146
H         72.39478       -0.46713       30.91998
H         71.93103        0.18004       32.52546
N         72.11886        2.76963       30.60296
C         72.88605        3.98881       30.34703
C         72.14393        5.24651       30.78925
O         71.01407        5.16987       31.25597
C         73.19981        4.07689       28.83972
C         74.06500        2.90580       28.35846
C         74.37508        3.05056       26.89227
N         73.96495        2.11692       26.00345
O         75.00424        4.02300       26.50140
H         71.16328        2.72390       30.23330
H         73.85466        3.96967       30.89498
H         73.75277        5.01427       28.62179
H         72.25181        4.08790       28.26632
H         73.52879        1.95017       28.53877
H         75.02067        2.88286       28.92649
H         73.43128        1.29109       26.31124
H         74.17793        2.22305       25.00081
N         72.75292        6.45862       30.64485
C         72.16589        7.75405       30.96614
C         72.10240        8.58517       29.68998
O         73.12318        8.74697       29.03283
C         73.02131        8.43928       32.07272
C         72.61672        9.90037       32.32904
C         72.89295        7.65739       33.39231
H         73.71700        6.47661       30.27626
H         71.13604        7.64231       31.35728
H         74.08657        8.44849       31.75206
H         71.57593        9.95820       32.69034
H         73.27385       10.34929       33.10432
H         72.72624       10.51413       31.41062
H         71.83440        7.65610       33.73751
H         73.22237        6.60571       33.26762
H         73.51568        8.12451       34.18447
N         70.93321        9.18229       29.31025
C         70.79522       10.03200       28.12612
C         70.66682       11.48617       28.54992
O         70.83773       11.76710       29.72707
C         69.63778        9.56158       27.19997
C         68.22627        9.89794       27.64011
N         67.65866        9.34729       28.73426
O         67.56702       10.66763       26.95669
H         70.12626        9.09143       29.93916
H         71.71682        9.96205       27.50762
H         69.72833        8.47594       27.00169
H         69.78768       10.06454       26.21981
H         68.15526        8.65435       29.30245
H         66.69139        9.59275       28.99456
N         70.42241       12.47828       27.64694
C         70.34440       13.88583       28.03017
C         69.17795       14.17209       28.97103
O         69.33588       14.99908       29.85703
C         70.25771       14.79430       26.78686
C         70.45927       16.25201       27.14313
C         71.67317       16.67415       27.71844
C         69.45429       17.20210       26.89902
C         71.87473       18.01524       28.04888
C         69.66041       18.54742       27.22840
C         70.87246       18.95708       27.80522
O         71.08708       20.24894       28.12597
H         70.32669       12.23116       26.65049
H         71.29581       14.12688       28.55180
H         69.28157       14.62725       26.27925
H         71.06356       14.51837       26.07261
H         72.46985       15.96701       27.91086
H         68.51302       16.90449       26.45471
H         72.81413       18.32170       28.49242
H         68.87883       19.27074       27.03435
H         70.42444       20.93627       27.96927
N         67.97083       13.54624       28.83061
C         66.83979       13.79318       29.73336
C         67.11126       13.32828       31.16735
O         66.29036       13.59857       32.03322
C         65.55161       13.10165       29.22827
C         65.11793       13.60255       27.83967
C         63.81079       13.00593       27.38947
O         63.13433       12.13396       28.16400
O         63.34995       13.32316       26.30493
H         67.85834       12.88568       28.05192
H         66.65269       14.88941       29.75503
H         64.72921       13.32907       29.94345
H         65.69802       11.99847       29.20251
H         65.88927       13.34815       27.08389
H         65.00227       14.70711       27.87172
N         68.22791       12.61864       31.48856
C         68.55761       12.13595       32.82235
C         69.86425       12.73404       33.33711
O         70.21891       12.44694       34.47237
C         68.73849       10.61989       32.75008
C         67.50861        9.87028       32.23479
C         67.84350        8.42074       32.04282
O         66.96823        7.57324       31.48664
O         68.93562        7.98757       32.37146
H         68.87427       12.36357       30.74360
H         67.75387       12.39033       33.54653
H         69.02722       10.21258       33.74529
H         69.56017       10.42769       32.02714
H         67.20238       10.28121       31.25377
H         66.66746        9.98582       32.94805
N         70.64522       13.54543       32.56589
C         71.89737       14.12028       33.00687
H         72.71345       13.76946       32.34001
H         71.83068       15.22614       32.93741
H         72.14888       13.84365       34.05088
H         70.36968       13.76964       31.60739
Ca        67.80186        5.50556       31.65522
O         69.90502        5.96158       27.86915
H         70.38643        5.14082       27.60411
H         69.30972        6.14104       27.09955
O         66.87523        6.46803       28.05649
H         66.37786        6.48923       28.91147
H         66.35983        7.05967       27.45282

Ca 1.0



