%chk=holoCaM-CaMKII.loop3.water1.frame245.chk
%nprocshared=20
%mem=10GB
%nosave
#b3lyp/svp scf=(tight,noincore,xqc) Test 
#IOP(5/87=12) Density=Current Pop=(MK,readradii) iop(6/33=2) iop(6/42=6)

holoCaM-CaMKII.loop3.water1.frame245 

   0  1 
C         94.65923      107.08998       54.24455
C         94.16725      105.78834       53.69199
O         94.93671      105.08274       53.05342
H         95.72714      107.24941       53.98098
H         94.05505      107.92476       53.83564
H         94.56827      107.07481       55.35147
N         92.88864      105.38268       53.93318
C         92.40437      104.08343       53.49709
C         92.33375      104.01907       51.97467
O         91.66532      104.84485       51.36845
C         91.01808      103.74666       54.10683
C         90.82473      102.24949       54.08722
O         89.98706      101.60776       53.25654
O         91.53475      101.57218       54.80221
H         92.27551      105.98734       54.50134
H         93.12284      103.33444       53.89890
H         90.22665      104.30228       53.57425
H         90.97344      104.04721       55.17666
N         92.98181      103.03135       51.30326
C         92.94804      102.83644       49.85555
C         91.52432      102.75581       49.31927
O         91.21442      103.49397       48.39422
C         93.76718      101.57146       49.50139
C         93.84277      101.29539       47.99233
C         94.89192      100.21714       47.68223
C         94.98641       99.95848       46.17187
N         96.09543       99.05661       45.86047
H         93.52964      102.36999       51.86348
H         93.45038      103.70171       49.36642
H         93.34971      100.67636       50.01328
H         94.79964      101.73990       49.88192
H         94.14699      102.22687       47.46827
H         92.84231      100.98295       47.61900
H         94.64927       99.26792       48.20943
H         95.87896      100.58058       48.04453
H         95.15330      100.92097       45.63934
H         94.03021       99.51856       45.81009
H         95.96632       98.13702       46.34059
H         96.13073       98.90225       44.82679
H         96.99948       99.48882       46.16240
N         90.60062      101.91333       49.86298
C         89.23071      101.78779       49.35806
C         88.19455      102.42603       50.28650
O         87.00876      102.31005       50.00909
C         88.93867      100.31214       49.01765
C         89.05974       99.38069       50.19074
O         88.23556       99.50261       51.24532
O         89.89360       98.48928       50.17956
H         90.87372      101.35336       50.68437
H         89.11522      102.34079       48.39938
H         89.66208       99.99724       48.23285
H         87.91789      100.21809       48.58825
N         88.56907      103.22423       51.32671
C         87.64187      104.02612       52.11227
C         86.79502      103.28045       53.12387
O         86.06266      103.95975       53.83049
H         89.56845      103.38731       51.49120
H         86.99229      104.61444       51.42842
H         88.23087      104.76333       52.69586
N         86.81572      101.92354       53.28532
C         85.97072      101.26466       54.28408
C         86.43722      101.50076       55.72716
O         85.75671      101.04721       56.63683
C         85.81946       99.75165       54.00315
C         87.03879       98.89729       54.24644
N         86.93755       97.55465       54.12017
O         88.10193       99.39435       54.58553
H         87.39164      101.35001       52.65849
H         84.94329      101.67759       54.16675
H         85.47439       99.60589       52.95577
H         85.02066       99.36775       54.67470
H         86.04332       97.11853       53.84921
H         87.74428       96.94735       54.31655
N         87.57906      102.19041       56.01807
C         88.06065      102.42498       57.37005
C         88.59652      101.16763       58.02081
O         88.17649      100.83495       59.11739
H         88.13939      102.59813       55.25828
H         87.26817      102.90720       57.98315
H         88.91802      103.13071       57.31519
N         89.60458      100.48079       57.41146
C         90.32410       99.32320       57.95901
C         91.55718       99.10784       57.09578
O         91.38972       98.85892       55.90965
C         89.48968       98.01578       57.91977
C         88.23477       98.04911       58.74514
C         88.27195       97.80252       60.12772
C         87.00637       98.33191       58.12836
C         87.09240       97.84578       60.87991
C         85.83506       98.39440       58.88273
C         85.87310       98.15035       60.26242
O         84.74739       98.20857       61.00142
H         89.92888      100.87164       56.51705
H         90.64708       99.55077       58.99822
H         90.10860       97.15498       58.26175
H         89.22017       97.79608       56.86340
H         89.20859       97.56971       60.61992
H         86.96230       98.53018       57.06670
H         87.12628       97.64823       61.94410
H         84.90111       98.63645       58.39228
H         83.88956       98.43000       60.61116
N         92.82193       99.21963       57.60408
C         94.00728       99.12544       56.74965
C         94.85242       97.91020       57.06603
O         94.76581       97.34273       58.14376
C         94.88659      100.42035       56.80798
C         95.45562      100.69121       58.22581
C         94.10555      101.62387       56.27389
C         96.43524      101.86796       58.27398
H         92.94250       99.39518       58.61135
H         93.68893       98.99072       55.69356
H         95.75147      100.27333       56.12360
H         96.01798       99.79517       58.56284
H         94.63608      100.88446       58.94896
H         94.72572      102.53927       56.22185
H         93.81676      101.40562       55.23316
H         93.20913      101.82979       56.89823
H         96.85138      101.95914       59.29882
H         97.27321      101.70268       57.56341
H         95.93450      102.82798       58.03628
N         95.72888       97.48965       56.11407
C         96.72522       96.44295       56.27888
C         98.09433       97.05351       56.00884
O         98.17100       98.24139       55.75034
C         96.42165       95.30086       55.29160
O         96.45053       95.76908       53.97071
H         95.71035       97.96658       55.20260
H         96.70738       96.02859       57.30942
H         95.41104       94.89427       55.52079
H         97.16966       94.48721       55.41318
H         96.20949       94.99746       53.39526
N         99.22731       96.30018       56.03072
C        100.52788       96.84976       55.65100
C        100.51120       97.30029       54.19841
O        100.92314       98.41801       53.91760
C        101.62739       95.80643       55.85003
H         99.15808       95.30631       56.29086
H        100.78262       97.71076       56.31013
H        102.61261       96.24501       55.57900
H        101.66476       95.50637       56.91885
H        101.44500       94.90799       55.22473
N        100.00618       96.48344       53.22836
C         99.94547       96.83051       51.81019
C         99.26689       98.16591       51.58510
O         99.86002       99.01575       50.93514
C         99.20989       95.73811       51.02523
H         99.62300       95.57082       53.52202
H        100.98182       96.89234       51.40782
H         99.18977       95.99144       49.94316
H         99.73323       94.76592       51.14538
H         98.16451       95.62842       51.38584
N         98.04449       98.44003       52.12507
C         97.39732       99.73899       51.96947
C         98.31669      100.84727       52.46105
O         98.62234      101.74946       51.69340
C         96.05438       99.80995       52.72400
C         94.97498       98.85138       52.16667
C         93.61835       99.16945       52.74413
O         93.32941      100.33136       52.95524
O         92.61698       98.26981       52.78912
H         97.58615       97.71471       52.69410
H         97.18438       99.91643       50.89106
H         95.68893      100.85323       52.59928
H         96.20259       99.63563       53.80819
H         95.23399       97.78432       52.32919
H         94.89831       99.02150       51.07220
N         98.82709      100.82010       53.72002
C         99.74795      101.81912       54.21274
H        100.65320      101.84914       53.56902
H         99.25965      102.81524       54.22252
H        100.06302      101.56192       55.24720
H         98.57777      100.04699       54.34229
Ca        90.68393       99.44258       53.08406
O         90.08402       96.43976       52.83786
H         90.70083       95.88097       52.30251
H         89.34468       95.82721       53.07598

Ca 1.0



