%chk=holoCaM.loop3.water2.frame345.chk
%nprocshared=20
%mem=10GB
%nosave
#b3lyp/svp scf=(tight,noincore,xqc) Test 
#IOP(5/87=12) Density=Current Pop=(MK,readradii) iop(6/33=2) iop(6/42=6)

holoCaM.loop3.water2.frame345 

   0  1 
C        -12.16007       28.61360       81.75647
C        -13.00133       29.12001       80.62588
O        -14.22007       29.04404       80.70395
H        -11.54717       29.44900       82.15912
H        -12.79813       28.21981       82.57606
H        -11.48959       27.80878       81.39362
N        -12.40756       29.70796       79.55134
C        -13.18161       30.34183       78.49694
C        -13.80043       29.31277       77.56849
O        -13.08076       28.57559       76.90911
C        -12.30602       31.34506       77.73463
C        -13.09869       32.28236       76.87376
O        -12.50510       33.12989       76.24126
O        -14.44396       32.23865       76.81592
H        -11.38010       29.80843       79.55509
H        -13.97707       30.92982       78.99253
H        -11.54698       30.80487       77.12721
H        -11.77092       31.98445       78.47068
N        -15.15295       29.20342       77.49739
C        -15.85400       28.20575       76.69862
C        -15.67372       28.41034       75.19067
O        -15.89292       27.46323       74.44930
C        -17.35458       28.23769       77.09549
C        -18.23419       27.08634       76.58659
C        -17.76064       25.72666       77.12028
C        -18.75709       24.61170       76.78947
N        -18.27111       23.32453       77.28634
H        -15.70181       29.81281       78.11273
H        -15.41858       27.22726       76.98945
H        -17.79471       29.20440       76.76362
H        -17.42088       28.21160       78.20725
H        -18.28124       27.07695       75.47761
H        -19.26163       27.27693       76.97052
H        -17.65472       25.78046       78.22665
H        -16.77580       25.47514       76.67503
H        -18.90414       24.55087       75.68892
H        -19.73713       24.84203       77.26527
H        -18.12778       23.36687       78.32192
H        -18.97705       22.58409       77.07236
H        -17.36881       23.07909       76.81745
N        -15.35808       29.63253       74.66285
C        -15.24319       29.90400       73.22468
C        -13.96796       30.66465       72.85317
O        -13.79551       30.95314       71.67602
C        -16.49996       30.64874       72.71362
C        -16.80626       31.93287       73.42803
O        -16.88726       32.98564       72.81847
O        -17.10190       31.87865       74.73581
H        -15.26912       30.42600       75.30782
H        -15.21794       28.94864       72.65551
H        -17.37970       29.98384       72.85421
H        -16.40079       30.83591       71.62155
N        -13.01447       30.99866       73.77098
C        -11.77266       31.67471       73.42063
C        -11.91209       33.12817       72.98873
O        -10.88845       33.70390       72.64763
H        -13.12046       30.69680       74.74643
H        -11.27003       31.09746       72.61335
H        -11.09822       31.66693       74.30373
N        -13.10385       33.79971       72.96423
C        -13.20515       35.17897       72.47033
C        -12.49868       36.21730       73.35207
O        -12.40410       37.36219       72.92964
C        -14.68037       35.57501       72.23106
C        -15.48167       35.79653       73.49525
N        -16.12652       36.96923       73.69529
O        -15.56720       34.91349       74.33458
H        -13.96290       33.30101       73.23050
H        -12.72226       35.18527       71.46705
H        -15.16492       34.78096       71.62288
H        -14.70319       36.50597       71.62326
H        -16.07913       37.72761       72.99886
H        -16.68657       37.12060       74.54619
N        -12.00593       35.90485       74.58666
C        -11.31045       36.83351       75.46671
C        -12.05228       37.10948       76.77029
O        -11.51996       37.85125       77.58048
H        -12.12130       34.95362       74.93355
H        -11.14980       37.81330       74.96664
H        -10.31086       36.40694       75.69768
N        -13.30861       36.62470       77.00808
C        -14.14414       37.04640       78.13642
C        -14.83511       35.86269       78.79476
O        -15.46127       35.09244       78.08081
C        -15.23632       37.96738       77.56235
C        -14.66054       39.27013       77.06739
C        -14.54422       39.53110       75.69324
C        -14.24417       40.24494       77.98797
C        -14.02219       40.74703       75.24579
C        -13.73599       41.46728       77.53988
C        -13.62374       41.72227       76.16525
O        -13.13917       42.89789       75.71794
H        -13.76078       36.04505       76.28769
H        -13.57405       37.61694       78.90152
H        -16.01667       38.20085       78.31985
H        -15.73590       37.42578       76.73119
H        -14.84425       38.79289       74.96753
H        -14.33161       40.06425       79.05232
H        -13.93254       40.93219       74.18272
H        -13.43404       42.21545       78.26154
H        -12.86744       43.60442       76.32085
N        -14.84764       35.70921       80.16104
C        -15.64230       34.66726       80.81832
C        -16.74072       35.30198       81.65924
O        -16.43782       36.03747       82.58779
C        -14.77859       33.64748       81.64007
C        -14.31077       34.12795       83.04228
C        -13.58823       33.18917       80.78661
C        -13.63235       33.02992       83.86678
H        -14.33111       36.37787       80.75058
H        -16.13539       34.04535       80.04041
H        -15.44221       32.77157       81.82223
H        -15.19292       34.40413       83.65159
H        -13.64043       35.00876       82.95298
H        -13.94605       32.90913       79.78175
H        -12.85410       34.01384       80.66557
H        -13.07449       32.31505       81.23547
H        -14.31455       32.15819       83.97585
H        -12.68013       32.69895       83.40937
H        -13.40586       33.41923       84.88231
N        -18.05585       35.06810       81.38817
C        -19.11828       35.52558       82.28046
C        -19.13565       34.66678       83.54236
O        -18.36863       33.71990       83.63287
C        -20.48257       35.46394       81.56705
O        -20.79504       34.14910       81.20519
H        -18.30440       34.51729       80.55583
H        -18.94313       36.59289       82.54082
H        -20.43009       36.10303       80.65665
H        -21.27803       35.85989       82.23520
H        -21.61952       34.19972       80.65549
N        -20.01225       34.92307       84.55225
C        -20.15372       34.05625       85.72150
C        -20.62499       32.67548       85.30123
O        -20.04084       31.68881       85.72594
C        -21.16100       34.65100       86.70834
H        -20.62355       35.74972       84.47161
H        -19.18212       33.97903       86.26065
H        -21.24812       33.99287       87.60044
H        -20.80841       35.64818       87.04712
H        -22.16252       34.75947       86.24140
N        -21.65870       32.54769       84.41952
C        -22.16664       31.27168       83.92175
C        -21.04930       30.40049       83.38719
O        -20.96052       29.24486       83.77839
C        -23.19612       31.51986       82.80999
H        -22.07908       33.41411       84.04812
H        -22.67820       30.72832       84.74687
H        -23.60407       30.55565       82.43818
H        -24.03880       32.13072       83.19747
H        -22.73145       32.06032       81.95654
N        -20.13403       30.90905       82.51817
C        -19.02024       30.13485       81.98176
C        -18.17825       29.56675       83.11044
O        -18.03734       28.35364       83.18309
C        -18.16216       30.99336       81.02268
C        -18.98657       31.44094       79.80189
C        -18.16356       32.13600       78.76549
O        -17.24984       31.53718       78.23221
O        -18.48005       33.36089       78.30744
H        -20.22716       31.89901       82.25591
H        -19.42569       29.28054       81.39234
H        -17.31210       30.36832       80.66759
H        -17.74915       31.88163       81.54778
H        -19.82192       32.10046       80.09705
H        -19.41788       30.53885       79.31573
N        -17.62810       30.38193       84.05144
C        -16.87452       29.89760       85.19026
H        -15.85949       30.34406       85.17936
H        -17.39191       30.20304       86.12469
H        -16.77585       28.79170       85.19634
H        -17.77160       31.39579       83.97993
Ca       -17.86350       33.44224       76.15065
O        -18.09071       36.25281       77.07057
H        -18.29811       37.10011       76.60300
H        -18.75888       36.19671       77.79844
O        -20.44556       34.19005       74.75956
H        -20.60688       33.66506       75.58382
H        -19.97281       33.56388       74.15505

Ca 1.0



