%chk=holoCaM.loop3.water2.frame366.chk
%nprocshared=20
%mem=10GB
%nosave
#b3lyp/svp scf=(tight,noincore,xqc) Test 
#IOP(5/87=12) Density=Current Pop=(MK,readradii) iop(6/33=2) iop(6/42=6)

holoCaM.loop3.water2.frame366 

   0  1 
C          0.16094       12.70438       51.64523
C          0.21969       12.54199       50.15954
O          0.16909       13.52928       49.43919
H         -0.73796       12.17550       52.02490
H          1.06827       12.26175       52.10886
H          0.09639       13.77669       51.92403
N          0.34857       11.29818       49.62911
C          0.40197       11.05935       48.19872
C         -1.01087       11.10622       47.61684
O         -1.82249       10.25699       47.95724
C          1.06759        9.69378       47.95088
C          1.25446        9.37296       46.51125
O          1.80235        8.20137       46.17428
O          0.92153       10.15497       45.64462
H          0.45333       10.49966       50.27521
H          1.06456       11.82811       47.73407
H          0.45766        8.88911       48.41257
H          2.07649        9.68875       48.41983
N         -1.37557       12.09505       46.75338
C         -2.73705       12.26124       46.23366
C         -3.02904       11.46047       44.96700
O         -4.18535       11.43773       44.56699
C         -2.98340       13.75103       45.89651
C         -2.92698       14.68248       47.11723
C         -4.13074       14.45612       48.04962
C         -4.19300       15.45585       49.21078
N         -3.13266       15.23113       50.19370
H         -0.68746       12.83882       46.58899
H         -3.45997       11.92549       47.00475
H         -3.97482       13.88607       45.41006
H         -2.21228       14.07196       45.16069
H         -2.98038       15.72683       46.73898
H         -1.96044       14.56228       47.64860
H         -4.13994       13.42772       48.46490
H         -5.05256       14.59382       47.44306
H         -5.17440       15.32781       49.71863
H         -4.14464       16.49583       48.81827
H         -3.21599       14.26662       50.59080
H         -2.18871       15.35978       49.76712
H         -3.24452       15.92153       50.97066
N         -2.05087       10.84567       44.24657
C         -2.28936       10.17229       42.96396
C         -1.92032        8.69793       42.97516
O         -2.18476        8.02837       41.98543
C         -1.55647       10.92547       41.82515
C         -0.05347       11.06591       41.98434
O          0.58743       10.53801       43.04758
O          0.57675       11.70610       41.15926
H         -1.09490       10.91612       44.59811
H         -3.37486       10.19805       42.72137
H         -1.98562       11.95004       41.77946
H         -1.77525       10.42744       40.85485
N         -1.32641        8.11133       44.04728
C         -1.01036        6.69962       44.10938
C         -0.06496        6.24211       43.02226
O         -0.35608        5.24160       42.38222
H         -1.09727        8.66989       44.87928
H         -1.94551        6.09845       44.07975
H         -0.51709        6.50063       45.08664
N          1.12717        6.87281       42.82435
C          2.20768        6.29209       42.02289
C          3.35791        5.85581       42.93616
O          4.29765        5.24876       42.44414
C          2.69708        7.23613       40.88541
C          3.33368        8.52697       41.33545
N          3.91883        9.36668       40.45217
O          3.34057        8.81800       42.50948
H          1.30584        7.73654       43.35757
H          1.84786        5.36569       41.52653
H          1.85294        7.47833       40.20579
H          3.46375        6.68388       40.30037
H          3.94985        9.14409       39.44840
H          4.36365       10.23740       40.78337
N          3.34798        6.13415       44.27535
C          4.37787        5.75466       45.21899
C          5.17101        6.94723       45.71932
O          6.03387        6.72940       46.55798
H          2.57256        6.65308       44.68147
H          5.10113        5.04796       44.76154
H          3.88940        5.23612       46.07334
N          5.01751        8.20662       45.19440
C          5.93103        9.30227       45.48736
C          5.17409       10.61312       45.87535
O          4.78756       11.31886       44.71743
C          6.87872        9.54200       44.28255
C          7.55263        8.27633       43.80661
C          6.87781        7.41324       42.92358
C          8.85275        7.95050       44.22016
C          7.48919        6.24385       42.46783
C          9.46146        6.77383       43.76789
C          8.78024        5.91711       42.88931
O          9.35436        4.78177       42.44314
H          4.31555        8.36763       44.47729
H          6.57570        8.99903       46.34071
H          7.64072       10.29524       44.57908
H          6.33307        9.96419       43.41240
H          5.87899        7.64969       42.58169
H          9.39022        8.60081       44.89822
H          6.95883        5.59146       41.78528
H         10.46203        6.52920       44.09986
H         10.24534        4.51539       42.71022
N          6.08885       11.47620       46.63524
C          5.51471       12.75751       47.10187
C          6.25281       13.87285       46.38251
O          7.47533       13.90387       46.41336
C          5.58771       12.87363       48.66065
C          4.58874       11.85348       49.28054
C          5.27088       14.30730       49.13578
C          4.62349       11.77160       50.80654
H          6.56862       10.95324       47.40427
H          4.43698       12.84171       46.83434
H          6.62525       12.64271       48.99233
H          4.81003       10.83406       48.90060
H          3.55309       12.11317       48.96594
H          6.00162       15.02902       48.71384
H          4.24773       14.61137       48.83111
H          5.36888       14.39412       50.23634
H          4.33398       12.73218       51.27675
H          3.89209       11.00622       51.14407
H          5.63536       11.47408       51.15232
N          5.54701       14.84074       45.72748
C          6.14888       15.92868       44.96620
C          5.92164       17.25735       45.65725
O          5.21496       17.30550       46.65503
C          5.53834       15.95485       43.55390
O          4.15427       16.17464       43.63757
H          4.52285       14.82474       45.79357
H          7.24724       15.77855       44.89051
H          5.72307       14.98117       43.05480
H          6.01462       16.76456       42.95744
H          3.84674       16.43686       42.73204
N          6.54172       18.38469       45.19902
C          6.38181       19.67514       45.85852
C          5.00209       20.26666       45.62478
O          4.60796       21.13941       46.38638
C          7.47398       20.65228       45.42470
H          7.19042       18.30349       44.40077
H          6.51691       19.50940       46.95131
H          8.46873       20.21407       45.65912
H          7.41665       20.84955       44.33374
H          7.37868       21.60985       45.97921
N          4.20499       19.84561       44.59930
C          2.81506       20.26234       44.46818
C          2.03050       19.63947       45.60171
O          1.35486       20.34173       46.34025
C          2.22924       19.79417       43.12711
H          4.57826       19.17317       43.91229
H          2.73753       21.37306       44.48045
H          2.27699       18.69005       43.01854
H          1.16660       20.11189       43.04571
H          2.79232       20.25568       42.28845
N          2.11204       18.29152       45.79522
C          1.39884       17.56602       46.84060
C          1.88293       17.95158       48.23775
O          1.25342       17.53804       49.20177
C          1.56109       16.03471       46.63486
C          1.04945       15.57702       45.24855
C          1.31147       14.12440       44.97746
O          0.40862       13.39733       44.60248
O          2.56115       13.63595       45.04557
H          2.71652       17.76316       45.15260
H          0.31853       17.81661       46.75331
H          1.00753       15.48188       47.42524
H          2.63958       15.78606       46.73347
H          1.56960       16.12220       44.44081
H         -0.03676       15.79445       45.15910
N          2.99450       18.71994       48.43589
C          3.45076       19.10676       49.75247
H          4.38714       19.70072       49.66683
H          2.68076       19.73368       50.24922
H          3.65871       18.20606       50.36709
H          3.55736       19.03902       47.63946
Ca         2.69699       10.98111       43.82122
O          2.43186       13.83505       42.02878
H          1.59682       14.35296       41.90786
H          3.11899       14.35793       41.54628
O          5.32940       12.43616       42.25479
H          6.14372       11.92811       42.01465
H          5.17254       13.03223       41.48173

Ca 1.0



