%chk=holoCaM-CaMKII.loop4.water1.frame451.chk
%nprocshared=20
%mem=10GB
%nosave
#b3lyp/svp scf=(tight,noincore,xqc) Test 
#IOP(5/87=12) Density=Current Pop=(MK,readradii) iop(6/33=2) iop(6/42=6)

holoCaM-CaMKII.loop4.water1.frame451 

   -3  1 
C         62.00339       57.94784       24.60522
C         61.05545       59.07121       24.31042
O         59.85368       58.90567       24.46060
H         62.71170       58.26134       25.40171
H         61.45559       57.04514       24.94741
H         62.57839       57.69696       23.68901
N         61.54699       60.26854       23.89790
C         60.70805       61.42574       23.61714
C         59.81230       61.15540       22.41400
O         60.32283       60.77264       21.37031
C         61.60787       62.65719       23.37955
C         60.85307       63.95358       23.36453
O         61.46294       64.99658       23.21070
O         59.52563       63.98888       23.57553
H         62.57213       60.36426       23.81429
H         60.09588       61.64176       24.52022
H         62.17806       62.53639       22.43293
H         62.33365       62.73679       24.21874
N         58.46700       61.37293       22.48532
C         57.54224       61.13545       21.37862
C         57.19462       62.46523       20.72089
O         57.56063       62.66540       19.57070
C         56.29098       60.34659       21.89646
C         56.71630       58.92158       22.33970
C         55.16321       60.30217       20.84745
C         55.58210       58.07226       22.92240
H         58.08715       61.77312       23.35344
H         58.03776       60.52953       20.58651
H         55.87401       60.87833       22.77940
H         57.49700       59.00672       23.12461
H         57.15155       58.37741       21.47357
H         54.84039       61.32925       20.57700
H         55.48918       59.76867       19.93248
H         54.25717       59.81490       21.26187
H         55.98800       57.08979       23.24431
H         55.12786       58.57515       23.80193
H         54.79856       57.86631       22.16498
N         56.46684       63.40832       21.37564
C         56.07542       64.68900       20.77715
C         57.24990       65.64358       20.46953
O         57.00116       66.67294       19.85685
C         55.01701       65.40430       21.65610
C         55.49882       65.70535       23.05044
O         54.85549       66.44347       23.77815
O         56.59820       65.09101       23.52057
H         56.11795       63.15905       22.30863
H         55.57822       64.46485       19.80698
H         54.09505       64.78777       21.73015
H         54.74223       66.35668       21.15232
N         58.54114       65.37045       20.81651
C         59.68296       66.18474       20.41071
C         59.74749       67.58178       21.00682
O         59.80425       68.53523       20.24287
H         58.75124       64.50176       21.31952
H         59.69754       66.24929       19.29960
H         60.61587       65.66502       20.71573
N         59.82117       67.77645       22.35701
C         60.07110       69.08340       22.98002
C         61.32052       69.05349       23.86394
O         61.50395       69.95808       24.66715
C         58.80687       69.59421       23.70952
C         58.30515       68.77582       24.86079
O         57.19807       69.00685       25.31801
O         59.01021       67.75734       25.36319
H         59.73262       66.95526       22.97220
H         60.25964       69.85902       22.20490
H         58.00041       69.62004       22.94461
H         58.96128       70.63314       24.07201
N         62.27135       68.08477       23.70490
C         63.50959       68.02157       24.46588
C         63.36186       67.43686       25.85707
O         64.38483       67.27192       26.50573
H         62.16543       67.39841       22.94635
H         63.99869       69.02009       24.49395
H         64.20002       67.33188       23.93305
N         62.15246       67.08225       26.38357
C         62.00690       66.44303       27.68894
C         61.17952       65.17273       27.59648
O         60.57100       64.90082       26.57188
C         61.46978       67.45983       28.73351
C         60.17571       68.23286       28.38986
C         58.88389       67.45400       28.51975
N         57.90618       67.88459       29.35245
O         58.69284       66.45300       27.85198
H         61.30122       67.26831       25.84737
H         63.00623       66.12362       28.05873
H         62.26439       68.23454       28.81133
H         61.37779       66.99273       29.73838
H         60.26252       68.67196       27.37680
H         60.11957       69.09187       29.09268
H         58.02135       68.74189       29.91227
H         57.01648       67.36869       29.42356
N         61.15335       64.32509       28.66069
C         60.33902       63.11830       28.74499
C         59.55227       63.20744       30.04000
O         60.16908       63.35082       31.08687
C         61.24890       61.85476       28.70550
C         60.45166       60.55819       28.94147
C         61.95179       61.74896       27.34134
H         61.75690       64.54707       29.46731
H         59.63566       63.04156       27.88681
H         62.02137       61.93041       29.50183
H         61.12935       59.67801       28.90397
H         59.97351       60.56283       29.94224
H         59.66906       60.42809       28.16616
H         62.57266       62.64469       27.13641
H         62.61223       60.85630       27.30735
H         61.19723       61.65046       26.53486
N         58.19195       63.09549       30.05202
C         57.41615       63.13200       31.28967
C         57.03387       61.72203       31.68904
O         57.46955       60.78559       31.03836
C         56.21701       64.11803       31.21821
C         54.99290       63.65839       30.45405
N         54.98996       63.52936       29.11140
O         53.96021       63.44242       31.07107
H         57.71134       62.88199       29.17081
H         58.05373       63.51573       32.11530
H         56.55336       65.10791       30.84276
H         55.88316       64.28155       32.26584
H         55.81952       63.75543       28.55460
H         54.12952       63.23666       28.62384
N         56.27332       61.48703       32.79182
C         55.92752       60.14285       33.23962
C         55.07030       59.41810       32.20816
O         55.31689       58.24947       31.94997
C         55.20544       60.21023       34.60053
C         55.16976       58.86910       35.29647
C         56.37447       58.25099       35.68440
C         53.95237       58.23910       35.59560
C         56.36111       57.02812       36.35712
C         53.94161       57.01210       36.27021
C         55.14721       56.40464       36.65501
O         55.15238       55.22877       37.31454
H         55.95579       62.29203       33.35092
H         56.87973       59.58906       33.39194
H         54.18847       60.63740       34.45701
H         55.76288       60.89204       35.27965
H         57.32841       58.72058       35.47823
H         53.01369       58.69727       35.31184
H         57.29676       56.56948       36.65344
H         52.99643       56.53699       36.49840
H         54.33581       54.76758       37.55231
N         54.04372       60.05927       31.57404
C         53.20401       59.42357       30.55399
C         53.96937       59.04783       29.27556
O         53.38731       58.35765       28.45022
C         52.00949       60.32825       30.17473
C         51.08607       60.61994       31.37055
C         49.93049       61.48450       30.95700
O         50.12769       62.60452       30.51261
O         48.66847       61.03332       31.08843
H         53.85072       61.03288       31.84411
H         52.79505       58.48508       30.99192
H         51.39941       59.81683       29.39647
H         52.39361       61.28110       29.74765
H         51.63424       61.14336       32.18045
H         50.69890       59.65950       31.77563
N         55.26348       59.42853       29.04987
C         56.06304       58.97792       27.90696
C         57.16077       58.01396       28.34739
O         57.76114       57.39303       27.48109
C         56.72206       60.17049       27.18065
C         55.71139       61.14956       26.58648
C         56.41250       62.30922       25.93468
O         56.20418       62.56287       24.76323
O         57.26225       63.08384       26.63446
H         55.71780       60.03389       29.73375
H         55.42161       58.41491       27.19422
H         57.37104       59.79632       26.35694
H         57.36226       60.71130       27.91191
H         55.05651       61.53333       27.38798
H         55.07973       60.62484       25.83685
N         57.48742       57.83715       29.66008
C         58.48280       56.90184       30.13434
H         59.29240       57.45922       30.65038
H         58.00598       56.21283       30.86417
H         58.92209       56.29804       29.31513
H         57.03239       58.39601       30.38165
Ca        58.02926       65.82343       25.03048
O         55.36013       66.13435       26.99322
H         55.30424       65.40307       26.32810
H         54.44470       66.20032       27.36473

Ca 1.0



