%chk=holoCaM-CaMKII.loop1.water2.frame471.chk
%nprocshared=20
%mem=10GB
%nosave
#b3lyp/svp scf=(tight,noincore,xqc) Test 
#IOP(5/87=12) Density=Current Pop=(MK,readradii) iop(6/33=2) iop(6/42=6)

holoCaM-CaMKII.loop1.water2.frame471 

   0  1 
C         66.17499       56.24111       64.44479
C         65.63581       57.61213       64.70789
O         64.70645       58.01223       64.02003
H         66.99882       55.98745       65.14291
H         65.35563       55.50249       64.58495
H         66.54432       56.17916       63.40118
N         66.12786       58.37832       65.72435
C         65.50272       59.64208       66.07639
C         65.75660       60.69727       65.00117
O         66.89414       61.11207       64.82471
C         65.98763       60.13882       67.45468
C         65.04167       61.14915       68.03422
O         63.86755       61.40041       67.42456
O         65.28731       61.66424       69.10986
H         66.88296       58.00081       66.31773
H         64.41728       59.41156       66.17436
H         67.02147       60.54269       67.37909
H         66.00117       59.29320       68.17667
N         64.73868       61.13362       64.20961
C         64.92003       62.06991       63.09769
C         65.24481       63.49508       63.53140
O         65.75488       64.23855       62.70497
C         63.67330       62.05360       62.17652
C         62.41652       62.63549       62.85384
C         61.12849       62.25804       62.11156
C         59.89691       62.68282       62.92926
N         58.66266       62.17001       62.33689
H         63.82479       60.68501       64.34020
H         65.76963       61.68273       62.49139
H         63.49513       60.98685       61.91303
H         63.86257       62.60716       61.23164
H         62.50600       63.73753       62.96544
H         62.33336       62.21568       63.86353
H         61.10130       61.15519       61.99227
H         61.10689       62.71180       61.09826
H         59.85698       63.79209       62.99712
H         59.97824       62.27592       63.96182
H         57.85140       62.47827       62.92059
H         58.54625       62.53330       61.36424
H         58.68261       61.12338       62.32597
N         64.88656       63.97793       64.75953
C         65.10280       65.36995       65.16858
C         65.90180       65.49307       66.46992
O         66.12712       66.61622       66.90042
C         63.75574       66.13324       65.21462
C         62.77198       65.63910       66.22800
O         63.08712       64.62575       67.04160
O         61.67595       66.16766       66.32182
H         64.38690       63.34982       65.40418
H         65.69760       65.90544       64.39694
H         63.28131       66.06376       64.21133
H         63.95064       67.20749       65.42487
N         66.42869       64.40607       67.11200
C         67.34153       64.52416       68.24227
C         66.72796       64.94967       69.56509
O         67.50030       65.15484       70.49134
H         66.29347       63.46486       66.71912
H         68.14588       65.24093       67.96361
H         67.82775       63.54087       68.42027
N         65.38391       65.08643       69.76559
C         64.83022       65.52937       71.05134
C         65.12573       64.58874       72.22974
O         64.84209       64.99965       73.34656
C         63.29736       65.77663       70.95722
C         62.56157       64.53549       70.55847
O         61.84644       64.49569       69.42677
O         62.68600       63.51815       71.21071
H         64.74510       64.90902       68.97923
H         65.30247       66.50743       71.29089
H         63.09569       66.56804       70.20437
H         62.90628       66.12413       71.93720
N         65.63085       63.32313       72.08355
C         65.87014       62.43477       73.22095
C         64.91048       61.25505       73.28638
O         64.97302       60.52842       74.26816
H         65.83020       62.95808       71.14457
H         65.73787       62.98523       74.17595
H         66.92181       62.07590       73.19969
N         63.99550       60.99878       72.30692
C         62.98524       59.93738       72.38310
C         62.51493       59.50670       70.99555
O         62.84929       60.13777       70.00326
C         61.73596       60.40058       73.20126
C         61.94244       60.41619       74.71124
O         61.32838       61.68417       72.80908
H         64.03916       61.56495       71.45369
H         63.44580       59.01903       72.81063
H         60.89627       59.68702       73.04278
H         61.13210       61.64104       71.84282
H         62.20899       59.39869       75.06608
H         62.71438       61.14704       75.01611
H         60.98909       60.71514       75.20043
N         61.76996       58.36896       70.86337
C         61.33106       57.83081       69.57755
C         59.81189       57.60272       69.59369
O         59.21528       57.55880       70.66134
C         62.16757       56.53966       69.27569
C         63.67479       56.91947       69.15984
C         61.70903       55.80757       68.00401
C         64.62339       55.72966       69.00574
H         61.56373       57.81667       71.71072
H         61.54539       58.56391       68.77599
H         62.03382       55.83805       70.12891
H         63.99887       57.44504       70.08110
H         63.82258       57.61081       68.29995
H         60.65879       55.48166       68.10339
H         61.83208       56.45703       67.11542
H         62.28238       54.87397       67.84464
H         64.44693       55.17785       68.06169
H         65.67000       56.10106       68.97788
H         64.51445       55.04089       69.86982
N         59.12033       57.49222       68.42071
C         57.68707       57.21846       68.30502
C         57.47221       55.98703       67.43838
O         58.43051       55.40983       66.95141
C         56.93145       58.41958       67.66212
C         56.99340       59.68650       68.51642
O         57.37081       58.66378       66.35008
H         59.64346       57.59857       67.54641
H         57.24184       57.02848       69.30572
H         55.85072       58.18027       67.59122
H         58.19094       59.21241       66.39446
H         58.04268       60.00691       68.64346
H         56.42208       60.49992       68.01833
H         56.54372       59.49586       69.51324
N         56.21553       55.54905       67.17045
C         55.92488       54.47397       66.22715
C         56.38487       54.85764       64.81881
O         57.08090       54.07138       64.19256
C         54.41346       54.13176       66.24295
C         53.99542       53.56573       67.61201
O         53.65108       55.27184       65.93788
H         55.42861       56.02658       67.63280
H         56.46131       53.54626       66.53310
H         54.23316       53.34475       65.47469
H         52.71279       54.97036       65.82036
H         54.58599       52.65420       67.84637
H         54.14963       54.30489       68.42543
H         52.92107       53.28757       67.59783
N         56.04805       56.06396       64.27201
C         56.41634       56.48816       62.91700
C         57.92364       56.43780       62.69664
O         58.36422       55.78324       61.76214
C         55.87761       57.91624       62.65193
C         56.12202       58.37810       61.20185
C         55.65229       59.81665       60.92626
C         54.13006       60.00455       61.03180
N         53.75537       61.37960       60.69894
H         55.49840       56.71537       64.85293
H         55.92507       55.80271       62.19045
H         56.35761       58.63257       63.35508
H         54.78530       57.91293       62.84935
H         55.62063       57.68119       60.49494
H         57.21352       58.35271       60.99717
H         55.95842       60.07521       59.88890
H         56.16785       60.51337       61.62218
H         53.78118       59.77960       62.06179
H         53.62343       59.30819       60.32705
H         54.19705       62.04538       61.37416
H         54.06042       61.61245       59.72575
H         52.71606       61.47773       60.75803
N         58.76881       57.09245       63.53916
C         60.22943       57.07641       63.42663
C         60.74104       55.64858       63.36276
O         61.48497       55.32639       62.44632
C         60.85605       57.81681       64.63108
C         60.58095       59.32876       64.57906
C         61.03657       60.04563       65.81910
O         61.88708       60.90795       65.75197
O         60.46244       59.80253       67.00488
H         58.34211       57.58865       64.33190
H         60.55195       57.59312       62.49431
H         61.95964       57.67460       64.64301
H         60.44009       57.37199       65.55037
H         59.50175       59.54209       64.45201
H         61.11878       59.73093       63.69904
N         60.34025       54.72382       64.27263
C         60.76004       53.34208       64.21191
H         61.85880       53.27345       64.35021
H         60.25689       52.76045       65.01364
H         60.47767       52.90261       63.23068
H         59.68339       55.00083       65.00803
Ca        62.21714       62.54710       68.40994
O         59.62680       62.94489       66.70930
H         58.79721       63.07589       66.18582
H         60.22811       63.67417       66.41622
O         59.62013       61.64219       69.87879
H         59.41001       62.34069       70.54723
H         59.18085       61.96400       69.05487

Ca 1.0



