%chk=holoCaM.loop1.water2.frame268.chk
%nprocshared=20
%mem=10GB
%nosave
#b3lyp/svp scf=(tight,noincore,xqc) Test 
#IOP(5/87=12) Density=Current Pop=(MK,readradii) iop(6/33=2) iop(6/42=6)

holoCaM.loop1.water2.frame268 

   0  1 
C         33.26747       21.72428       50.98956
C         32.04641       21.98640       50.16816
O         32.16116       22.58519       49.10787
H         34.16870       22.14089       50.48989
H         33.15226       22.20084       51.98407
H         33.40153       20.62925       51.11331
N         30.82867       21.53930       50.58482
C         29.63525       21.74070       49.78257
C         29.29489       23.22623       49.70237
O         29.02463       23.84283       50.72352
C         28.44686       20.91082       50.31456
C         27.31541       20.91876       49.32374
O         27.42086       21.68382       48.22173
O         26.31843       20.24706       49.51702
H         30.76769       21.00084       51.46288
H         29.86266       21.33359       48.76989
H         28.11056       21.27640       51.30953
H         28.77658       19.85460       50.41904
N         29.32425       23.86035       48.49825
C         29.13099       25.29567       48.32374
C         27.66418       25.65709       48.23277
O         27.22101       26.52845       48.96794
C         29.88491       25.77825       47.06114
C         31.39714       25.45603       47.09065
C         32.11247       26.05965       48.31027
C         33.60473       25.71965       48.32832
N         34.23622       26.26738       49.52935
H         29.59478       23.30499       47.67306
H         29.55748       25.84848       49.18595
H         29.75404       26.87833       46.96212
H         29.44905       25.30034       46.15576
H         31.85670       25.85349       46.15988
H         31.54595       24.35562       47.09071
H         31.68367       25.64269       49.24338
H         31.97952       27.16341       48.30695
H         34.09826       26.13445       47.42263
H         33.73308       24.61458       48.32448
H         35.24928       26.01144       49.53462
H         34.14568       27.30934       49.53929
H         33.78514       25.86951       50.38611
N         26.85094       25.02581       47.34250
C         25.43930       25.35903       47.15507
C         24.67991       25.29151       48.47138
O         23.98852       26.24166       48.80929
C         24.77025       24.37969       46.16089
C         25.46326       24.29028       44.82269
O         26.10873       23.15373       44.48305
O         25.45081       25.23675       44.05345
H         27.26308       24.26798       46.77892
H         25.35688       26.38510       46.73368
H         23.70372       24.64506       45.99866
H         24.75977       23.38248       46.62385
N         24.74772       24.17164       49.24434
C         23.94136       23.94389       50.43395
C         23.01400       22.75234       50.23498
O         22.31860       22.38446       51.17049
H         25.37666       23.40806       48.95126
H         23.31941       24.82966       50.68677
H         24.62334       23.74665       51.28887
N         22.93831       22.11453       49.02820
C         22.07281       20.98111       48.71575
C         22.45136       19.67655       49.43020
O         21.78636       18.68027       49.18021
C         22.03144       20.78793       47.17342
C         23.35546       20.46715       46.53398
O         23.43058       20.35105       45.32179
O         24.46339       20.32542       47.27711
H         23.48141       22.49225       48.24670
H         21.03379       21.24442       49.01058
H         21.66724       21.73745       46.72119
H         21.30882       19.98737       46.91191
N         23.45996       19.59417       50.35029
C         23.76427       18.37558       51.08770
C         24.49865       17.31052       50.29306
O         24.75774       16.26458       50.86910
H         23.98751       20.43404       50.61539
H         22.82267       17.96057       51.51146
H         24.42594       18.63201       51.94308
N         24.88703       17.49271       48.99582
C         25.61291       16.48358       48.22262
C         26.95130       17.02622       47.72941
O         27.16914       18.22639       47.78278
C         24.74251       15.99974       47.03879
C         23.40791       15.40486       47.51486
O         24.51171       17.03659       46.11771
H         24.65838       18.37258       48.53256
H         25.83638       15.60836       48.86947
H         25.29103       15.19514       46.50371
H         23.85871       17.67008       46.51244
H         22.82413       15.04471       46.64213
H         23.58889       14.55517       48.20497
H         22.79988       16.17040       48.04451
N         27.92412       16.17204       47.28437
C         29.24640       16.62002       46.84453
C         29.54024       16.06378       45.45252
O         29.67977       14.85862       45.30251
C         30.32349       16.21865       47.90742
C         30.03631       16.98051       49.23473
C         31.75128       16.51492       47.41761
C         31.03840       16.72094       50.36234
H         27.74083       15.15814       47.31249
H         29.27223       17.72585       46.77502
H         30.26339       15.12203       48.08593
H         29.03276       16.68858       49.60927
H         30.02875       18.07632       49.04020
H         32.50432       16.14809       48.14366
H         31.96436       15.97692       46.47474
H         31.89805       17.60027       47.27394
H         32.04827       17.09837       50.09888
H         30.71631       17.27356       51.27056
H         31.09156       15.63835       50.59807
N         29.64420       16.90992       44.38249
C         29.98230       16.47582       43.02161
C         31.43770       16.02942       42.92847
O         32.14781       16.07026       43.91809
C         29.74488       17.62663       41.99192
C         28.27083       18.02157       41.87379
O         30.55764       18.74290       42.26209
H         29.45497       17.90750       44.54861
H         29.32167       15.62985       42.72919
H         30.00942       17.27643       40.97442
H         30.10128       19.32053       42.92679
H         27.65868       17.13957       41.59025
H         27.90319       18.43300       42.83007
H         28.15813       18.79412       41.08415
N         31.96367       15.63556       41.73599
C         33.38519       15.36707       41.51928
C         34.21660       16.60807       41.84529
O         35.15972       16.51603       42.61654
C         33.63970       14.93518       40.04549
C         32.98724       13.57994       39.73761
O         33.14965       15.90981       39.15738
H         31.32941       15.57462       40.92676
H         33.72230       14.53343       42.17627
H         34.74009       14.82541       39.90480
H         33.47291       15.67324       38.24932
H         33.39557       12.79869       40.41231
H         31.88529       13.62156       39.85862
H         33.20925       13.28511       38.68991
N         33.90019       17.80597       41.28133
C         34.64784       19.05162       41.46689
C         34.73575       19.45427       42.92671
O         35.84079       19.65845       43.41135
C         33.98844       20.16087       40.61518
C         34.25420       19.88552       39.12249
C         33.48588       20.82656       38.19055
C         33.97878       20.72902       36.73223
N         33.88193       19.37740       36.17441
H         33.06421       17.83041       40.67968
H         35.69210       18.92265       41.10232
H         34.42640       21.15446       40.85686
H         32.89811       20.20062       40.83800
H         33.96910       18.84562       38.86149
H         35.34729       20.00387       38.95494
H         33.63363       21.87801       38.51730
H         32.39980       20.59098       38.25095
H         35.03861       21.06473       36.68579
H         33.37395       21.42486       36.11041
H         34.51468       18.71883       36.68254
H         32.89575       19.03392       36.21380
H         34.19444       19.40377       35.17667
N         33.62170       19.56042       43.69668
C         33.64973       19.89990       45.11954
C         34.57671       18.95229       45.86924
O         35.49988       19.42610       46.51694
C         32.21092       19.88716       45.68588
C         31.40455       21.08318       45.13758
C         29.95987       21.09986       45.55170
O         29.46193       20.17446       46.17124
O         29.19785       22.15727       45.21570
H         32.71954       19.34617       43.25287
H         34.05713       20.92710       45.25702
H         32.23609       19.98540       46.79422
H         31.72159       18.92410       45.42107
H         31.42874       21.10648       44.02871
H         31.88165       22.01261       45.51580
N         34.43416       17.60497       45.76575
C         35.34402       16.64596       46.36144
H         36.15644       17.13230       46.94072
H         34.78461       15.96558       47.03466
H         35.81128       16.04113       45.55453
H         33.66792       17.23853       45.19844
Ca        26.42208       21.76728       46.22679
O         25.84453       18.66357       44.28581
H         26.12923       17.71780       44.20894
H         25.31337       18.82743       43.46655
O         26.92256       21.04386       42.77303
H         27.53820       20.92334       42.00871
H         26.16029       21.55089       42.39641

Ca 1.0



