%chk=holoCaM-CaMKII.loop1.water2.frame370.chk
%nprocshared=20
%mem=10GB
%nosave
#b3lyp/svp scf=(tight,noincore,xqc) Test 
#IOP(5/87=12) Density=Current Pop=(MK,readradii) iop(6/33=2) iop(6/42=6)

holoCaM-CaMKII.loop1.water2.frame370 

   0  1 
C         43.69062       76.39418       46.15749
C         44.25261       77.04367       47.38464
O         43.88336       78.16531       47.69487
H         42.96250       77.06412       45.65329
H         44.52125       76.17897       45.45098
H         43.18818       75.44315       46.42950
N         45.17643       76.38382       48.13199
C         45.84227       76.97345       49.28876
C         46.62796       78.20022       48.84670
O         47.56119       78.05977       48.06940
C         46.70384       75.88132       49.96573
C         47.65325       76.33240       51.03865
O         47.26405       77.05042       52.10484
O         48.82946       76.02039       50.94879
H         45.42488       75.42380       47.84401
H         45.07965       77.28577       50.02025
H         47.31299       75.36396       49.19217
H         46.01059       75.12874       50.39922
N         46.26185       79.44695       49.28148
C         46.92054       80.68426       48.86497
C         47.59508       81.40783       50.02653
O         48.25640       82.39983       49.74965
C         45.90936       81.63722       48.18045
C         45.46336       81.16311       46.78698
C         44.46599       82.16304       46.17233
C         44.11643       81.87332       44.70147
N         43.47611       80.57144       44.51381
H         45.46094       79.53074       49.92608
H         47.73887       80.46491       48.14474
H         46.39385       82.62648       48.02443
H         45.03160       81.78719       48.84807
H         44.99788       80.16432       46.85167
H         46.36208       81.09543       46.13560
H         44.91448       83.18055       46.19774
H         43.53645       82.18067       46.78279
H         45.03621       81.93005       44.07789
H         43.42153       82.66995       44.35173
H         43.19132       80.47967       43.51142
H         44.14449       79.79943       44.73427
H         42.62424       80.49559       45.11511
N         47.53172       80.97630       51.32365
C         48.30364       81.60401       52.39957
C         49.37793       80.66017       52.94046
O         50.11894       81.06207       53.82631
C         47.37847       82.17260       53.49960
C         46.61167       81.17057       54.31948
O         45.79085       81.61410       55.29035
O         46.73837       79.97075       54.14497
H         46.96486       80.15067       51.55836
H         48.85762       82.48345       52.00547
H         46.65502       82.86820       53.02050
H         47.99780       82.76740       54.20604
N         49.56890       79.41787       52.40684
C         50.65529       78.53104       52.78179
C         50.54634       77.99208       54.18763
O         51.49616       78.10404       54.94819
H         48.96885       79.08945       51.63788
H         51.62913       79.03987       52.61831
H         50.62651       77.64876       52.10561
N         49.42602       77.32159       54.56448
C         49.27154       76.57586       55.80615
C         49.01519       75.08921       55.51815
O         48.77620       74.34192       56.45638
C         48.17416       77.21851       56.68482
C         46.77842       77.25577       56.12315
O         46.51112       76.79086       55.02862
O         45.80259       77.82416       56.85479
H         48.64676       77.29825       53.90569
H         50.20467       76.62801       56.40917
H         48.47809       78.26648       56.89692
H         48.13392       76.67577       57.65388
N         49.11846       74.57744       54.25159
C         48.98648       73.16519       53.92429
C         47.56545       72.63617       53.89172
O         47.41581       71.47035       53.55093
H         49.40745       75.18794       53.47614
H         49.62161       72.55982       54.60696
H         49.37934       73.01844       52.89382
N         46.47738       73.40022       54.20000
C         45.09863       72.91160       54.10454
C         44.27228       73.80959       53.18989
O         44.76979       74.85069       52.77755
C         44.46687       72.81010       55.51455
C         45.19593       71.78990       56.40054
O         44.42066       74.06259       56.14957
H         46.62254       74.36825       54.51058
H         45.08249       71.89541       53.65245
H         43.42217       72.44704       55.40901
H         45.34250       74.31564       56.41692
H         44.68995       71.72339       57.38691
H         45.17839       70.78701       55.92439
H         46.25270       72.08996       56.56661
N         43.00834       73.45070       52.79815
C         42.19008       74.27334       51.90444
C         40.84885       74.57856       52.56760
O         40.06678       73.65829       52.76992
C         41.96659       73.57064       50.52597
C         43.30653       73.08744       49.91015
C         41.23680       74.53148       49.56078
C         43.13570       72.30846       48.60126
H         42.62643       72.54564       53.11514
H         42.72037       75.22313       51.70073
H         41.33303       72.66991       50.68861
H         43.80034       72.39399       50.62414
H         43.98349       73.94970       49.73479
H         41.86761       75.42256       49.35044
H         40.98665       74.03738       48.60171
H         40.27604       74.87358       49.99020
H         42.45892       71.44021       48.75303
H         42.73462       72.95089       47.79196
H         44.12325       71.93015       48.26343
N         40.51605       75.84948       52.93762
C         39.21987       76.19180       53.53587
C         38.10289       76.18301       52.49803
O         38.36361       76.00469       51.31999
C         39.25284       77.59481       54.21125
C         40.19457       77.64091       55.41602
O         39.55613       78.60640       53.28272
H         41.22773       76.58355       52.82055
H         38.98228       75.44796       54.32902
H         38.25304       77.82858       54.63115
H         40.54190       78.68573       53.21249
H         40.15662       78.64578       55.88675
H         39.89442       76.88063       56.16824
H         41.22662       77.44701       55.08854
N         36.81689       76.41552       52.88767
C         35.69775       76.58353       51.96181
C         35.91383       77.79924       51.06992
O         35.81546       77.66805       49.85806
C         34.34864       76.73032       52.72159
C         33.94307       75.42710       53.43135
O         34.35914       77.82424       53.61125
H         36.63503       76.50301       53.89672
H         35.60406       75.68126       51.31566
H         33.54794       76.92248       51.97370
H         34.71833       77.52565       54.48730
H         33.84629       74.60690       52.68806
H         34.69266       75.12918       54.19350
H         32.96033       75.56217       53.93082
N         36.21738       79.01488       51.60999
C         36.39538       80.23915       50.82702
C         37.43380       80.05780       49.73743
O         37.14214       80.36627       48.59020
C         36.76779       81.42889       51.74345
C         35.58695       81.81203       52.66031
C         35.83720       83.08092       53.49368
C         36.94663       82.96561       54.55405
N         36.63379       81.96678       55.57825
H         36.34474       79.06428       52.63173
H         35.43870       80.49957       50.32138
H         36.99138       82.31070       51.10263
H         37.67911       81.18691       52.33298
H         35.30110       80.97166       53.32397
H         34.71226       82.02680       52.00828
H         34.89066       83.34889       54.01231
H         36.08681       83.91551       52.80281
H         37.04402       83.95847       55.04770
H         37.92293       82.73145       54.07953
H         37.37519       81.99286       56.31493
H         35.71255       82.18345       56.02454
H         36.61507       81.00709       55.16674
N         38.64564       79.51090       50.01175
C         39.65775       79.25621       48.98987
C         39.09717       78.40379       47.86638
O         39.11820       78.84896       46.72688
C         40.86514       78.55595       49.61834
C         41.64397       79.49908       50.54762
C         42.75673       78.77317       51.22642
O         43.59125       79.42146       52.04603
O         42.93125       77.58166       51.03657
H         38.82929       79.22607       50.98360
H         39.99857       80.21996       48.54869
H         41.56049       78.21365       48.82200
H         40.51433       77.65873       50.17884
H         40.98990       79.93994       51.32420
H         42.07459       80.32670       49.94291
N         38.56402       77.17763       48.10810
C         37.99225       76.36948       47.05468
H         37.15446       76.91900       46.57401
H         38.76580       76.13224       46.29411
H         37.59793       75.42083       47.47610
H         38.54611       76.81283       49.06685
Ca        45.34997       78.12691       52.47171
O         43.30221       79.91557       54.87087
H         43.19415       80.22066       55.80608
H         42.58933       80.38702       54.37122
O         43.51223       76.55847       55.32616
H         42.85319       75.96797       55.77085
H         43.46134       77.40321       55.83851

Ca 1.0



