%chk=holoCaM.loop3.water2.frame457.chk
%nprocshared=20
%mem=10GB
%nosave
#b3lyp/svp scf=(tight,noincore,xqc) Test 
#IOP(5/87=12) Density=Current Pop=(MK,readradii) iop(6/33=2) iop(6/42=6)

holoCaM.loop3.water2.frame457 

   0  1 
C         18.75645       67.29256       77.10001
C         19.26030       66.46163       78.23893
O         18.57021       65.53702       78.64572
H         17.80048       67.77475       77.38812
H         19.48758       68.08034       76.82141
H         18.59023       66.63976       76.21714
N         20.47836       66.71517       78.79165
C         21.03506       65.88532       79.84558
C         20.20524       65.99366       81.11432
O         20.08044       67.07766       81.66679
C         22.50390       66.25654       80.09359
C         23.21208       65.22415       80.90849
O         22.54945       64.16482       81.41288
O         24.42949       65.24321       80.94111
H         21.04845       67.48430       78.40641
H         21.03395       64.83931       79.45923
H         22.61940       67.26851       80.53545
H         23.01058       66.24781       79.10142
N         19.58073       64.89086       81.60631
C         18.69187       64.89829       82.76215
C         19.41256       65.27569       84.04646
O         18.86975       66.07579       84.79432
C         17.98447       63.53244       82.91716
C         17.07412       63.24272       81.70525
C         16.30344       61.92888       81.86057
C         15.40235       61.69349       80.63920
N         14.69388       60.41882       80.74148
H         19.71624       64.00336       81.10339
H         17.87855       65.64052       82.59459
H         17.34035       63.56817       83.82393
H         18.73179       62.71883       83.04759
H         17.67731       63.18547       80.77448
H         16.34237       64.07364       81.59550
H         15.67522       61.96722       82.77702
H         17.02639       61.09044       81.95634
H         16.02328       61.69413       79.71970
H         14.66308       62.52079       80.55189
H         14.10203       60.28731       79.88934
H         15.37926       59.63082       80.80005
H         14.07785       60.41746       81.58649
N         20.63340       64.75429       84.36545
C         21.32501       65.05550       85.62398
C         22.55754       65.93137       85.44055
O         23.19179       66.24951       86.43959
C         21.67741       63.74347       86.36335
C         22.67139       62.85126       85.66223
O         23.15229       63.15740       84.58442
O         23.04657       61.69884       86.24734
H         21.08867       64.13300       83.68273
H         20.65309       65.63052       86.29667
H         20.74395       63.16550       86.52908
H         22.10412       63.99742       87.35789
N         22.95320       66.38445       84.21973
C         24.11565       67.23241       84.03110
C         25.38898       66.53576       84.44772
O         26.11676       67.07243       85.27008
H         22.40774       66.14278       83.38152
H         23.98656       68.18234       84.59710
H         24.20268       67.49082       82.95345
N         25.72817       65.33957       83.88886
C         26.98377       64.64396       84.15285
C         27.82767       64.55020       82.87853
O         28.85045       63.87896       82.89077
C         26.70371       63.26527       84.79282
C         26.26288       62.19733       83.82238
N         26.95690       61.03914       83.71755
O         25.27635       62.36982       83.13072
H         25.07364       64.91240       83.22296
H         27.57642       65.20707       84.90591
H         25.94190       63.39097       85.59388
H         27.63701       62.91637       85.28362
H         27.78724       60.86328       84.30203
H         26.65850       60.30599       83.05867
N         27.48466       65.25184       81.75609
C         28.27324       65.28845       80.53930
C         28.02604       64.14369       79.57679
O         28.59730       64.21097       78.49753
H         26.69209       65.90649       81.79078
H         29.35280       65.39885       80.78009
H         27.97517       66.20353       79.98040
N         27.20136       63.08392       79.84707
C         26.92925       62.03317       78.85632
C         25.40858       61.84215       78.62112
O         24.71612       62.97234       79.00987
C         27.52535       60.70408       79.33021
C         29.01914       60.80892       79.47658
C         29.58662       61.11166       80.72390
C         29.85578       60.61728       78.36539
C         30.97233       61.22092       80.85911
C         31.24332       60.71494       78.50505
C         31.80602       61.01835       79.75407
O         33.14198       61.11702       79.90418
H         26.75428       63.00774       80.77244
H         27.39801       62.29797       77.88244
H         27.28327       59.87985       78.62304
H         27.06948       60.43951       80.30766
H         28.95451       61.27448       81.58760
H         29.43408       60.38379       77.39510
H         31.39732       61.46219       81.82492
H         31.87890       60.55533       77.64306
H         33.75402       60.97554       79.16802
N         25.12599       61.58566       77.20529
C         23.71146       61.28393       76.87139
C         23.58939       59.83508       76.41648
O         24.32174       59.42303       75.52682
C         23.22098       62.29476       75.78120
C         23.07262       63.70583       76.42249
C         21.88418       61.85757       75.14282
C         22.70005       64.82467       75.44884
H         25.80239       60.90143       76.79428
H         23.04058       61.41651       77.75244
H         23.97732       62.32554       74.96616
H         24.03451       64.00483       76.88291
H         22.29772       63.66813       77.22260
H         21.98342       60.86460       74.65846
H         21.07726       61.81548       75.89999
H         21.58148       62.54902       74.33166
H         23.47879       64.92187       74.66445
H         21.71143       64.65511       74.97809
H         22.63519       65.78341       76.00762
N         22.62866       59.02520       76.94849
C         22.43730       57.63950       76.53337
C         21.31507       57.53605       75.52255
O         20.64562       58.52484       75.26639
C         22.15230       56.76398       77.76614
O         20.97368       57.19306       78.39539
H         21.95341       59.43310       77.61078
H         23.35605       57.26858       76.02997
H         23.00569       56.85217       78.47416
H         22.03788       55.70240       77.45612
H         20.86523       56.63524       79.20831
N         21.07822       56.36262       74.86670
C         20.01218       56.22965       73.87723
C         18.62647       56.30446       74.51188
O         17.65200       56.41470       73.78116
C         20.16520       54.91731       73.10149
H         21.70151       55.56083       75.04965
H         20.12098       57.06292       73.14696
H         19.38915       54.83626       72.31127
H         21.16251       54.88888       72.61072
H         20.08094       54.04646       73.78626
N         18.45966       56.22209       75.86307
C         17.17375       56.35882       76.53280
C         16.85540       57.82768       76.70823
O         15.77092       58.26014       76.34537
C         17.23043       55.66726       77.89934
H         19.28273       56.06023       76.46011
H         16.37252       55.83889       75.96075
H         17.45589       54.58823       77.75426
H         18.01657       56.10897       78.54757
H         16.24854       55.75113       78.41181
N         17.80015       58.65936       77.23284
C         17.62984       60.09678       77.41670
C         17.20309       60.75447       76.11694
O         16.18930       61.43901       76.11317
C         18.94431       60.72881       77.93342
C         19.30136       60.25908       79.35543
C         20.62323       60.81941       79.79452
O         21.52715       60.07064       80.12998
O         20.81942       62.14890       79.82344
H         18.71159       58.24437       77.47281
H         16.83628       60.28170       78.16907
H         18.83867       61.83675       77.95829
H         19.76583       60.47075       77.23310
H         19.35349       59.15237       79.40784
H         18.51356       60.59947       80.05859
N         17.90147       60.55111       74.96632
C         17.51641       61.10823       73.68575
H         16.62520       61.76624       73.75917
H         18.35918       61.69996       73.27337
H         17.28053       60.28004       72.98399
H         18.72721       59.94235       74.98411
Ca        23.67820       62.34616       80.90840
O         24.55866       59.42905       80.62452
H         25.20999       59.27025       81.35259
H         24.17857       58.53585       80.43333
O         23.50497       59.74295       83.48454
H         23.94532       60.22915       84.22502
H         23.22403       58.88367       83.88737

Ca 1.0



