%chk=holoCaM.loop2.water1.frame240.chk
%nprocshared=20
%mem=10GB
%nosave
#b3lyp/svp scf=(tight,noincore,xqc) Test 
#IOP(5/87=12) Density=Current Pop=(MK,readradii) iop(6/33=2) iop(6/42=6)

holoCaM.loop2.water1.frame240 

   -2  1 
C         58.01181      105.56687       44.76498
C         57.07765      106.56410       45.38611
O         55.97679      106.20284       45.77622
H         58.94813      105.52148       45.36303
H         57.55864      104.55375       44.74310
H         58.26258      105.87797       43.72962
N         57.48799      107.84971       45.54778
C         56.69561      108.86812       46.22829
C         55.47896      109.25187       45.39925
O         55.62863      109.86538       44.35113
C         57.61247      110.07734       46.49367
C         57.07696      111.25122       47.25600
O         57.83254      112.18230       47.43065
O         55.84623      111.31851       47.78912
H         58.44323      108.08525       45.23244
H         56.38414      108.45511       47.21276
H         57.96700      110.46612       45.51378
H         58.49640      109.71074       47.06026
N         54.23312      108.89260       45.81176
C         53.01130      109.27148       45.11512
C         52.75999      110.75887       45.27130
O         52.59068      111.44902       44.27612
C         51.81157      108.49626       45.68434
H         54.15521      108.30319       46.64992
H         53.08488      108.99011       44.03995
H         50.88248      108.77331       45.14011
H         51.97258      107.40419       45.55767
H         51.66386      108.70480       46.76492
N         52.69158      111.30783       46.51950
C         52.31840      112.69882       46.77603
C         53.31401      113.71826       46.23973
O         52.99837      114.90034       46.26630
C         52.21327      112.95257       48.29983
C         51.29040      111.99606       48.99889
O         51.77029      111.19090       49.96735
O         50.10879      111.94512       48.70011
H         52.85429      110.68330       47.32401
H         51.32657      112.87069       46.30099
H         51.85807      113.98894       48.48914
H         53.22767      112.84854       48.74750
N         54.56627      113.36105       45.84257
C         55.59942      114.32411       45.50425
C         55.86032      115.28583       46.65218
O         55.82957      116.48714       46.42835
H         54.83513      112.36976       45.83367
H         55.31609      114.88341       44.58559
H         56.53838      113.76873       45.28970
N         56.09651      114.82171       47.91537
C         56.36371      115.67834       49.07215
C         57.70614      115.35501       49.74502
O         57.97408      115.88028       50.81645
C         55.18585      115.61576       50.06934
C         54.93199      114.30296       50.76372
N         53.94653      114.23851       51.68729
O         55.59848      113.30961       50.51625
H         56.05430      113.80841       48.07302
H         56.40954      116.74436       48.75998
H         54.25397      115.90715       49.53598
H         55.37100      116.37416       50.86033
H         53.38482      115.07109       51.91648
H         53.74251      113.36523       52.18332
N         58.63080      114.56382       49.13158
C         59.96695      114.28716       49.63942
C         60.08426      113.26783       50.76609
O         61.22011      112.97130       51.10912
H         58.43913      114.24961       48.17701
H         60.46099      115.24112       49.92491
H         60.55299      113.85635       48.79793
N         59.01698      112.68663       51.39340
C         59.16953      111.68792       52.46092
C         58.34452      110.43180       52.19144
O         57.14339      110.52163       52.00326
C         58.78543      112.27186       53.83958
C         59.81117      113.30277       54.32258
O         57.50799      112.84879       53.79139
H         58.06525      112.97983       51.13760
H         60.23170      111.37269       52.56200
H         58.80082      111.43014       54.57469
H         57.18367      112.90085       54.72854
H         60.81752      112.83334       54.39015
H         59.86025      114.17189       53.63593
H         59.53562      113.65672       55.33885
N         58.93996      109.20687       52.23566
C         58.23076      107.92622       52.14993
C         57.24922      107.74372       53.31528
O         57.63253      107.90643       54.46377
C         59.28070      106.75738       52.09969
C         59.93940      106.74982       50.69167
C         58.66097      105.38179       52.40765
C         61.05007      105.71434       50.50820
H         59.96097      109.18120       52.38157
H         57.64886      107.87571       51.20499
H         60.04896      106.92659       52.88750
H         60.37855      107.74784       50.48352
H         59.15647      106.55382       49.92411
H         58.24460      105.37090       53.43530
H         57.87156      105.13648       51.67158
H         59.42591      104.58174       52.41192
H         60.67046      104.67820       50.61564
H         61.45980      105.80202       49.47984
H         61.86653      105.89245       51.23773
N         56.00166      107.23796       53.05855
C         55.06528      106.75523       54.07671
C         55.13270      105.23418       54.11264
O         55.86015      104.65700       53.33406
C         53.61836      107.15450       53.71426
C         53.40343      108.62849       53.67239
O         53.58328      109.36329       54.78605
O         53.01264      109.15950       52.64451
H         55.76400      107.01939       52.08628
H         55.34360      107.13819       55.08206
H         52.91053      106.75387       54.46862
H         53.35504      106.71322       52.72496
N         54.39776      104.51015       55.00358
C         54.44808      103.04887       55.04439
C         53.98121      102.38369       53.74433
O         54.74844      101.56692       53.24422
C         53.68793      102.50726       56.27180
C         53.81917      101.00217       56.40934
C         55.08609      100.38357       56.45364
C         52.66915      100.19994       56.50076
C         55.19383       98.99522       56.56829
C         52.78336       98.81173       56.63115
C         54.04380       98.20980       56.65949
H         53.81240      105.01016       55.68661
H         55.51190      102.77240       55.20321
H         52.61961      102.80769       56.22160
H         54.12877      102.97182       57.18042
H         55.99592      100.96488       56.39039
H         51.68384      100.64769       56.47990
H         56.17084       98.52878       56.58797
H         51.89344       98.20141       56.70931
H         54.13028       97.13510       56.75427
N         52.79333      102.64416       53.10743
C         52.37483      101.99246       51.86650
C         53.40749      102.14055       50.75893
O         53.70405      101.16274       50.09021
C         51.02542      102.65352       51.53597
C         51.11787      104.00695       52.21109
C         51.82220      103.64725       53.51494
H         52.19904      100.90165       52.00080
H         50.74033      102.66170       50.46121
H         50.23613      102.10240       52.09441
H         51.77678      104.66388       51.60885
H         50.15169      104.53964       52.34074
H         52.24421      104.56854       53.94028
H         51.10880      103.17606       54.22525
N         54.02769      103.32488       50.54569
C         55.03976      103.54796       49.51718
C         56.23329      102.63614       49.74522
O         56.60701      101.91510       48.83026
C         55.40881      105.04169       49.52836
C         54.16348      105.85411       49.09841
C         54.29799      107.31613       49.30330
O         55.39005      107.83987       49.86790
O         53.38669      108.05470       48.96566
H         53.79331      104.10112       51.17612
H         54.62166      103.32595       48.50931
H         56.24610      105.26289       48.82892
H         55.73264      105.31661       50.55318
H         53.26016      105.56751       49.66970
H         53.96900      105.65564       48.02206
N         56.83524      102.56830       50.96245
C         57.91841      101.66437       51.28778
H         58.78844      102.24478       51.65678
H         57.58364      100.97657       52.09421
H         58.23726      101.05387       50.41827
H         56.47951      103.15481       51.71875
Ca        55.48607      109.99215       49.50094
O         54.77496      111.30093       52.98851
H         55.45251      111.37848       53.70274
H         53.92352      111.51086       53.44520

Ca 1.0



