%chk=holoCaM.loop1.water2.frame69.chk
%nprocshared=20
%mem=10GB
%nosave
#b3lyp/svp scf=(tight,noincore,xqc) Test 
#IOP(5/87=12) Density=Current Pop=(MK,readradii) iop(6/33=2) iop(6/42=6)

holoCaM.loop1.water2.frame69 

   0  1 
C         77.31453       35.47107       35.35205
C         76.62465       36.66028       34.76476
O         77.08224       37.14592       33.74154
H         78.35584       35.75165       35.61745
H         76.79654       35.11234       36.26488
H         77.33629       34.65361       34.60189
N         75.53059       37.20456       35.37077
C         74.84969       38.38072       34.85475
C         75.10029       39.51052       35.84101
O         74.57680       39.47536       36.94620
C         73.36040       38.03376       34.63108
C         72.58463       39.02629       33.81949
O         71.41658       38.79586       33.55654
O         73.16777       40.12032       33.30839
H         75.18586       36.79082       36.25106
H         75.28667       38.65604       33.86987
H         72.85821       37.86620       35.60856
H         73.31380       37.08451       34.05302
N         76.02179       40.47371       35.54419
C         76.49127       41.47633       36.50082
C         75.39543       42.40029       36.99656
O         75.56349       42.97112       38.06505
C         77.67605       42.29376       35.90782
C         77.25543       43.22540       34.75025
C         78.45352       43.77758       33.96092
C         78.02586       44.52866       32.68165
N         77.30280       45.76771       32.96628
H         76.49618       40.41466       34.63470
H         76.88298       40.90910       37.37477
H         78.42685       41.55828       35.54121
H         78.16258       42.90882       36.69470
H         76.62029       44.04654       35.14134
H         76.65673       42.65223       34.04251
H         79.07314       42.91653       33.62819
H         79.08468       44.42634       34.60323
H         77.39363       43.86829       32.04832
H         78.93853       44.77538       32.09517
H         76.41226       45.57327       33.47540
H         77.90729       46.41043       33.52696
H         77.06528       46.23387       32.06040
N         74.29769       42.67086       36.23272
C         73.26527       43.62741       36.62933
C         71.84941       43.05141       36.58887
O         70.93299       43.75936       36.98399
C         73.40591       44.91611       35.79286
C         73.25694       44.75273       34.30373
O         72.99567       43.55586       33.74651
O         73.38581       45.72965       33.58427
H         74.23840       42.23525       35.30306
H         73.42982       43.93820       37.68466
H         74.41877       45.33436       35.98531
H         72.66077       45.66153       36.14531
N         71.58581       41.77831       36.17529
C         70.26710       41.16994       36.25498
C         69.21604       41.83408       35.38991
O         68.19414       42.24259       35.92237
H         72.35166       41.17362       35.85020
H         69.93527       41.16755       37.31693
H         70.34288       40.10955       35.92989
N         69.37058       41.91024       34.03792
C         68.31678       42.36606       33.12355
C         67.87531       41.24928       32.16765
O         66.92132       41.47586       31.43489
C         68.73099       43.65359       32.37030
C         70.06875       43.51487       31.72092
O         70.98296       44.25208       32.04841
O         70.32006       42.46549       30.93006
H         70.26046       41.58048       33.63980
H         67.40045       42.62799       33.69629
H         68.78701       44.49134       33.10033
H         67.96106       43.91553       31.61366
N         68.45653       40.00955       32.15803
C         67.91576       38.87419       31.42560
C         68.88722       38.19097       30.48178
O         68.61305       37.04951       30.14396
H         69.25737       39.81020       32.76820
H         66.98429       39.11465       30.86872
H         67.63435       38.12225       32.19528
N         69.98294       38.81586       29.94926
C         70.88632       38.13807       29.00544
C         72.34744       38.29959       29.41317
O         72.63645       39.00076       30.36635
C         70.66035       38.66027       27.56618
C         69.22581       38.41015       27.08904
O         70.94637       40.03131       27.49756
H         70.14532       39.80923       30.16406
H         70.67763       37.04617       28.99369
H         71.34011       38.09579       26.88583
H         71.22293       40.22421       26.56362
H         68.98907       37.32551       27.13390
H         68.49654       38.96746       27.71381
H         69.11595       38.74877       26.03725
N         73.32814       37.64137       28.72026
C         74.75414       37.74936       29.02387
C         75.48878       38.24815       27.77228
O         75.55471       37.54507       26.77593
C         75.25643       36.37919       29.57825
C         74.62329       36.15847       30.98608
C         76.79139       36.29762       29.65392
C         74.90395       34.79454       31.61457
H         73.05387       37.01288       27.95218
H         74.92345       38.49878       29.82586
H         74.92215       35.57938       28.88094
H         73.51913       36.25178       30.91854
H         74.98727       36.94793       31.68242
H         77.11697       35.28976       29.98082
H         77.24586       36.45868       28.65487
H         77.19244       37.04180       30.36237
H         74.39616       34.74085       32.60209
H         74.50483       33.98706       30.96638
H         75.98625       34.63692       31.79110
N         76.01653       39.50868       27.76891
C         76.69593       40.15963       26.64842
C         78.11704       39.63333       26.47180
O         78.55266       38.78216       27.23322
C         76.76803       41.71052       26.88681
C         75.39171       42.37457       27.02021
O         77.58477       42.03057       27.98588
H         75.86120       40.06849       28.60197
H         76.10525       39.99915       25.72032
H         77.22395       42.20027       26.00363
H         77.04919       41.96783       28.81648
H         75.52185       43.47115       27.15088
H         74.78487       42.19333       26.10970
H         74.85106       41.98535       27.90325
N         78.92432       40.18471       25.51805
C         80.36157       39.93547       25.40213
C         81.06552       40.30242       26.69768
O         81.91800       39.55192       27.14981
C         80.98711       40.78755       24.26363
C         80.45562       40.40474       22.88200
O         80.74980       42.15710       24.48869
H         78.50933       40.88299       24.88650
H         80.55253       38.86314       25.17246
H         82.08562       40.58021       24.26304
H         81.58135       42.64817       24.25862
H         80.66117       39.33329       22.67780
H         79.36473       40.58728       22.80136
H         80.96743       41.01688       22.10925
N         80.74260       41.45852       27.34335
C         81.37257       41.90716       28.57994
C         81.18055       40.85536       29.66278
O         82.14735       40.38420       30.24429
C         80.76289       43.25588       29.08351
C         80.62026       44.38923       28.04417
C         81.92155       44.78120       27.34063
C         81.63374       45.84326       26.26632
N         82.85330       46.22595       25.55867
H         79.99662       42.02801       26.93035
H         82.45666       42.06870       28.38932
H         81.37531       43.61537       29.93953
H         79.73385       43.08685       29.46664
H         80.20090       45.28196       28.55903
H         79.87297       44.10101       27.27828
H         82.35847       43.89146       26.84039
H         82.64577       45.17266       28.08735
H         81.18045       46.74514       26.73521
H         80.90539       45.43139       25.53063
H         83.28235       45.38773       25.10335
H         82.61193       46.92449       24.81863
H         83.53334       46.65710       26.22542
N         79.91635       40.45744       29.97267
C         79.55833       39.52059       31.03236
C         80.00427       38.08971       30.74927
O         79.90386       37.26826       31.65081
C         78.01889       39.54582       31.21348
C         77.52171       40.91997       31.69381
C         76.02122       41.03837       31.66636
O         75.41026       40.96874       30.62003
O         75.33507       41.30428       32.77957
H         79.15574       40.88537       29.43388
H         80.04088       39.85716       31.97718
H         77.69553       38.78810       31.95395
H         77.55835       39.30079       30.23202
H         77.91623       41.73310       31.05526
H         77.90449       41.07725       32.72174
N         80.46564       37.69611       29.53003
C         80.86250       36.33145       29.25573
H         81.72883       36.05199       29.89139
H         80.01572       35.63984       29.45412
H         81.15593       36.22948       28.18858
H         80.51255       38.36703       28.75786
Ca        72.04280       41.31418       31.77099
O         74.70288       43.97531       30.90032
H         75.46610       44.15763       30.29650
H         74.42784       44.86764       31.22783
O         72.56767       42.48303       28.89817
H         72.54110       42.86709       27.98644
H         71.78175       41.88540       28.93317

Ca 1.0



