%chk=holoCaM-CaMKII.loop1.water2.frame447.chk
%nprocshared=20
%mem=10GB
%nosave
#b3lyp/svp scf=(tight,noincore,xqc) Test 
#IOP(5/87=12) Density=Current Pop=(MK,readradii) iop(6/33=2) iop(6/42=6)

holoCaM-CaMKII.loop1.water2.frame447 

   0  1 
C         72.73625       50.75329       29.40032
C         73.18438       49.49519       28.70805
O         74.09746       48.83763       29.18269
H         71.66768       50.66533       29.69096
H         73.33898       50.94857       30.31289
H         72.85010       51.61721       28.71088
N         72.55897       49.09577       27.56846
C         72.92007       47.89823       26.81005
C         74.30719       48.02141       26.18859
O         74.54504       48.95673       25.43817
C         71.84433       47.64522       25.72908
C         72.13653       46.54219       24.73202
O         72.42963       45.27500       25.09749
O         72.09372       46.80761       23.54162
H         71.76341       49.66829       27.24381
H         72.89335       47.04103       27.50470
H         71.69121       48.58445       25.15159
H         70.89057       47.41182       26.25117
N         75.26181       47.07676       26.44824
C         76.61844       47.08774       25.90883
C         76.93217       45.86336       25.05092
O         78.02494       45.83578       24.50129
C         77.62190       47.15894       27.08893
C         77.47096       48.44446       27.91955
C         77.96606       49.68317       27.14986
C         77.70523       51.00388       27.88676
N         76.27836       51.33367       27.92037
H         75.02837       46.31024       27.08364
H         76.75384       47.95591       25.23585
H         78.67278       47.08680       26.73242
H         77.43301       46.28363       27.75147
H         78.07933       48.35395       28.84647
H         76.41446       48.53851       28.22616
H         77.49440       49.76812       26.15236
H         79.06162       49.56463       26.99941
H         78.23286       51.81017       27.33178
H         78.11968       50.96520       28.91811
H         75.75327       50.64273       28.49484
H         76.15249       52.27744       28.35029
H         75.88882       51.35482       26.94892
N         76.06074       44.82320       24.87651
C         76.36327       43.66328       24.03344
C         75.36024       43.48728       22.89308
O         75.47552       42.50856       22.16761
C         76.53613       42.38827       24.89417
C         75.34173       41.91634       25.67310
O         75.45380       40.80762       26.42834
O         74.27920       42.50916       25.63464
H         75.15424       44.83731       25.36006
H         77.34919       43.79062       23.53621
H         77.36069       42.57112       25.61715
H         76.85386       41.55484       24.23008
N         74.40412       44.42367       22.61443
C         73.52260       44.33656       21.45704
C         72.43686       43.28223       21.55350
O         71.68686       43.15201       20.59604
H         74.35434       45.28426       23.17605
H         74.13741       44.16883       20.54639
H         73.00039       45.30989       21.33216
N         72.25346       42.51786       22.66785
C         71.18106       41.52968       22.79486
C         69.77030       42.13777       22.83406
O         68.82231       41.36994       22.93531
C         71.43802       40.61419       24.01829
C         71.48635       41.28940       25.36207
O         71.32328       42.49211       25.48310
O         71.75290       40.54537       26.45072
H         72.91260       42.62137       23.44835
H         71.22848       40.85298       21.91229
H         72.41859       40.11222       23.86783
H         70.65848       39.82272       24.05413
N         69.53453       43.48174       22.72202
C         68.19867       44.05868       22.68793
C         67.52157       44.14256       24.04290
O         66.40608       44.63766       24.08685
H         70.31321       44.13733       22.58874
H         67.56694       43.49823       21.96162
H         68.27468       45.10356       22.31736
N         68.11823       43.68969       25.18517
C         67.49253       43.75396       26.50634
C         68.42735       44.40109       27.52917
O         69.57065       44.68467       27.20417
C         67.09811       42.32354       26.95068
C         66.03284       41.71112       26.02868
O         68.22115       41.48019       27.02964
H         69.03933       43.24815       25.12252
H         66.56879       44.37076       26.46643
H         66.64387       42.37574       27.96246
H         68.50946       41.24976       26.10766
H         65.12522       42.35062       26.01654
H         66.41249       41.60957       24.98938
H         65.75336       40.70275       26.39923
N         67.98223       44.66865       28.80026
C         68.83243       45.22727       29.85527
C         68.76341       44.32204       31.08641
O         67.68451       44.13800       31.63092
C         68.38293       46.66217       30.27086
C         68.19384       47.59342       29.05031
C         69.42288       47.26033       31.24744
C         67.64738       48.97294       29.43730
H         66.99645       44.47600       29.02691
H         69.88063       45.30517       29.48923
H         67.39750       46.58419       30.78271
H         67.44860       47.13767       28.36444
H         69.15186       47.71294       28.49932
H         69.09945       48.23535       31.65815
H         69.57141       46.60519       32.11846
H         70.40542       47.38679       30.74194
H         67.45774       49.56998       28.52239
H         66.69191       48.86502       29.99541
H         68.36843       49.54157       30.05825
N         69.88649       43.74478       31.59261
C         69.90637       42.94515       32.81741
C         69.81889       43.84733       34.04535
O         69.84487       45.05805       33.91158
C         71.21394       42.10218       32.89974
C         71.33599       41.12454       31.72943
O         72.32914       42.95115       32.91126
H         70.75981       43.89487       31.09214
H         69.04859       42.23765       32.80376
H         71.19472       41.50608       33.83906
H         73.13135       42.38725       33.06758
H         70.45155       40.45636       31.68153
H         71.43818       41.68498       30.78516
H         72.24811       40.50210       31.84720
N         69.75873       43.31363       35.29425
C         69.86969       44.11979       36.51149
C         71.24569       44.77386       36.58688
O         71.33710       45.95390       36.89348
C         69.65038       43.24990       37.77650
C         68.20171       42.75476       37.86752
O         70.53597       42.15839       37.78200
H         69.68173       42.28927       35.37975
H         69.08887       44.91408       36.52995
H         69.84201       43.89339       38.66809
H         70.55198       41.80208       38.70826
H         67.50736       43.62189       37.90407
H         67.93633       42.11767       36.99909
H         68.06312       42.16424       38.79774
N         72.36030       44.03727       36.32381
C         73.73687       44.51513       36.46058
C         73.99036       45.74605       35.60757
O         74.40224       46.76911       36.13615
C         74.72279       43.38017       36.08328
C         74.59137       42.18394       37.05230
C         75.55855       41.02901       36.76445
C         75.26587       40.29895       35.44286
N         76.15606       39.14818       35.28565
H         72.20872       43.06982       36.00601
H         73.92485       44.78974       37.52217
H         75.76408       43.76571       36.14424
H         74.53287       43.05858       35.03738
H         73.56388       41.76620       37.05412
H         74.80258       42.55663       38.07728
H         75.44095       40.29359       37.59038
H         76.60485       41.40203       36.77596
H         75.40352       40.98553       34.58056
H         74.21131       39.94162       35.44142
H         75.93621       38.66017       34.38761
H         77.15265       39.46470       35.26649
H         76.01695       38.47574       36.07530
N         73.73129       45.71525       34.27662
C         73.88769       46.84967       33.37049
C         73.06321       48.02285       33.86780
O         73.61067       49.10216       34.04749
C         73.44660       46.42846       31.95366
C         74.39212       45.35952       31.36098
C         73.82256       44.81866       30.09131
O         74.45052       44.97447       28.92668
O         72.74912       44.25298       30.09641
H         73.35601       44.83810       33.90365
H         74.95475       47.16425       33.32108
H         73.44027       47.30644       31.27120
H         72.40593       46.03645       32.01312
H         74.52965       44.50038       32.04674
H         75.38784       45.81862       31.17556
N         71.74707       47.86503       34.16708
C         70.94084       48.93095       34.71838
H         69.91831       48.55468       34.93629
H         71.38999       49.29017       35.66980
H         70.87131       49.77095       33.99694
H         71.31365       46.94424       34.03838
Ca        73.08318       44.67694       27.15936
O         73.79599       41.59372       29.26446
H         74.20249       40.86062       28.73957
H         74.45419       41.78117       29.98011
O         70.48279       41.85890       28.55528
H         70.34767       40.90520       28.78792
H         69.75903       42.33137       29.03585

Ca 1.0



