%chk=holoCaM.loop2.water2.frame433.chk
%nprocshared=20
%mem=10GB
%nosave
#b3lyp/svp scf=(tight,noincore,xqc) Test 
#IOP(5/87=12) Density=Current Pop=(MK,readradii) iop(6/33=2) iop(6/42=6)

holoCaM.loop2.water2.frame433 

   -2  1 
C         97.32341      101.74078       70.46996
C         98.30467      102.78823       70.04525
O         99.26446      102.46213       69.35986
H         96.32157      101.99104       70.06024
H         97.62359      100.74416       70.08044
H         97.27083      101.69949       71.57640
N         98.10280      104.09251       70.38365
C         98.97223      105.14921       69.89358
C        100.36786      105.03697       70.49970
O        100.50545      105.17547       71.70759
C         98.36260      106.54076       70.17328
C         99.08546      107.61215       69.40875
O         98.75674      108.77801       69.53242
O        100.06788      107.26462       68.55384
H         97.26395      104.33765       70.93285
H         99.01467      105.02707       68.79274
H         98.38823      106.75323       71.26517
H         97.30344      106.56274       69.83683
N        101.44619      104.75411       69.71303
C        102.78953      104.56274       70.25094
C        103.39841      105.85405       70.79124
O        103.63495      105.92674       71.98900
C        103.71553      103.93839       69.19492
H        101.28044      104.58474       68.71139
H        102.71672      103.81777       71.07541
H        104.71572      103.73496       69.63200
H        103.28698      102.97732       68.83789
H        103.84873      104.59993       68.31680
N        103.74866      106.88639       69.96237
C        104.46430      108.07800       70.44038
C        103.59147      108.99954       71.29168
O        104.12076      109.95565       71.84158
C        105.07495      108.86415       69.24841
C        103.99695      109.45730       68.39557
O        103.27590      110.33481       68.84068
O        103.66351      108.86661       67.24379
H        103.58519      106.77514       68.95137
H        105.32308      107.72302       71.05248
H        105.68248      108.15378       68.64523
H        105.74971      109.67625       69.59502
N        102.24717      108.80381       71.41521
C        101.38404      109.66542       72.20069
C        101.23764      111.05985       71.62566
O        101.50325      112.01986       72.33444
H        101.79851      108.00103       70.95275
H        101.75213      109.70239       73.24945
H        100.36452      109.22207       72.21914
N        100.73357      111.24089       70.36971
C        100.34449      112.54322       69.82704
C         98.83182      112.59210       69.57166
O         98.37399      113.47580       68.85985
C        101.16359      112.91486       68.56504
C        100.93478      112.07536       67.33263
N        101.51588      112.43461       66.16552
O        100.21443      111.09315       67.36616
H        100.54772      110.40695       69.79777
H        100.56700      113.35319       70.55542
H        102.24725      112.90814       68.81079
H        100.89194      113.95853       68.29327
H        102.11940      113.26772       66.11140
H        101.34400      111.89533       65.30619
N         97.98612      111.70979       70.18437
C         96.53744      111.71736       70.03276
C         96.02628      111.10131       68.74010
O         94.81609      110.96886       68.62157
H         98.36761      111.03999       70.86695
H         96.13911      112.74524       70.17905
H         96.11655      111.08336       70.84317
N         96.85549      110.69123       67.73765
C         96.38796      110.01851       66.52023
C         97.32569      108.89027       66.12329
O         98.39192      108.75921       66.70601
C         96.27796      111.02001       65.32775
C         95.21695      112.08832       65.57659
O         97.49894      111.63901       64.98545
H         97.85963      110.86445       67.83927
H         95.38609      109.56928       66.70164
H         95.94435      110.44998       64.43480
H         98.13853      111.57838       65.73731
H         94.23190      111.60520       65.75424
H         95.48224      112.71941       66.44892
H         95.12866      112.73819       64.68029
N         97.00493      108.05842       65.09024
C         97.94496      107.09082       64.53262
C         98.21069      107.40559       63.06313
O         97.51366      108.21733       62.46874
C         97.48877      105.61844       64.77592
C         96.08521      105.31380       64.19607
C         97.57518      105.29989       66.27850
C         95.68129      103.84124       64.33170
H         96.07860      108.15108       64.64630
H         98.93068      107.20409       65.02961
H         98.21412      104.95156       64.27068
H         96.08763      105.55919       63.11285
H         95.31341      105.93455       64.69840
H         96.86115      105.91618       66.86404
H         97.38276      104.22734       66.48382
H         98.60652      105.50580       66.63108
H         95.57650      103.53965       65.39374
H         94.69749      103.67714       63.84408
H         96.43474      103.19074       63.84417
N         99.26313      106.81527       62.43524
C         99.64113      107.01566       61.04028
C         99.56284      105.68205       60.32762
O         99.11255      104.72158       60.92643
C        101.08112      107.57188       60.95328
C        101.21455      108.94530       61.53008
O        102.13463      109.18038       62.47783
O        100.54182      109.86798       61.09855
H         99.84242      106.16325       62.97614
H         98.95629      107.72306       60.52292
H        101.39331      107.66488       59.89454
H        101.78840      106.88000       61.46156
N         99.97737      105.53664       59.04128
C         99.92340      104.26190       58.33994
C        100.74224      103.16663       59.04857
O        100.14689      102.13380       59.32080
C        100.29441      104.46317       56.85183
C        100.14250      103.21397       56.02155
C         98.89959      102.56198       55.92825
C        101.23990      102.70361       55.30741
C         98.76147      101.41719       55.13997
C        101.09506      101.56144       54.51507
C         99.85747      100.91804       54.43242
H        100.32563      106.36238       58.53254
H         98.86018      103.93454       58.34117
H        101.31564      104.86601       56.74519
H         99.61243      105.23168       56.42642
H         98.03503      102.93819       56.45942
H        102.20501      103.19299       55.35590
H         97.80213      100.92070       55.07430
H        101.94221      101.17748       53.96215
H         99.74651      100.03491       53.81751
N        102.06719      103.27976       59.40487
C        102.82951      102.22022       60.07156
C        102.16793      101.68253       61.33016
O        101.99602      100.47856       61.45579
C        104.15804      102.89801       60.44447
C        104.31839      103.89675       59.32855
C        102.90075      104.44736       59.19542
H        103.00391      101.40132       59.33795
H        104.04544      103.50376       61.37196
H        105.00594      102.19596       60.59538
H        105.10151      104.66742       59.49150
H        104.56144      103.32524       58.40361
H        102.66781      105.19360       59.98424
H        102.82282      104.90235       58.19715
N        101.76424      102.54693       62.30032
C        101.12084      102.15858       63.55467
C         99.86222      101.35285       63.27226
O         99.71114      100.27446       63.82849
C        100.80671      103.43125       64.37661
C        102.10259      104.13361       64.84201
C        101.84286      105.46559       65.48324
O        101.35894      106.37737       64.83683
O        102.21336      105.68946       66.75269
H        101.89704      103.55204       62.11141
H        101.80547      101.52697       64.16436
H        100.20414      103.17903       65.27729
H        100.21160      104.10583       63.73519
H        102.78851      104.32173       63.99176
H        102.62578      103.46811       65.56287
N         98.95239      101.79084       62.36223
C         97.76566      101.05944       61.97127
H         96.87233      101.70047       62.11029
H         97.83956      100.79820       60.89385
H         97.63210      100.12578       62.55443
H         99.13599      102.66944       61.87906
Ca       101.46076      108.50335       67.31250
O        103.05330      110.09978       64.90790
H        103.84983      110.40088       64.40496
H        103.04943      109.11433       64.80993
O         99.90745      109.91740       64.45647
H         99.26217      110.00041       63.71098
H        100.33771      109.03736       64.32178

Ca 1.0



