%chk=holoCaM.loop1.water2.frame205.chk
%nprocshared=20
%mem=10GB
%nosave
#b3lyp/svp scf=(tight,noincore,xqc) Test 
#IOP(5/87=12) Density=Current Pop=(MK,readradii) iop(6/33=2) iop(6/42=6)

holoCaM.loop1.water2.frame205 

   0  1 
C         31.88211       61.55224       94.61039
C         31.83633       60.62301       95.77912
O         31.45537       61.04437       96.86270
H         32.92204       61.61186       94.22921
H         31.21434       61.16863       93.81088
H         31.54309       62.56763       94.90661
N         32.19532       59.31874       95.62405
C         32.12703       58.36805       96.72028
C         33.13537       58.76231       97.79493
O         34.33476       58.68620       97.56870
C         32.35261       56.94164       96.19079
C         32.02907       55.86312       97.17634
O         31.56538       56.14000       98.41151
O         32.15171       54.70520       96.82610
H         32.47922       58.99373       94.68640
H         31.08581       58.40819       97.11533
H         33.40035       56.82961       95.83672
H         31.67643       56.77500       95.32416
N         32.68577       59.27841       98.96750
C         33.52972       59.79986      100.03811
C         34.38476       58.72209      100.66926
O         35.59014       58.89736      100.77845
C         32.62023       60.44613      101.11613
C         33.34748       61.04848      102.32889
C         34.38433       62.10355      101.93261
C         34.98632       62.77739      103.16838
N         36.03407       63.71966      102.77946
H         31.66902       59.37194       99.06805
H         34.18026       60.59670       99.61842
H         31.90801       59.69126      101.51043
H         32.02655       61.25066      100.62881
H         33.84536       60.24379      102.91339
H         32.57426       61.51389      102.97963
H         33.90764       62.87814      101.29330
H         35.20207       61.61490      101.36268
H         35.42107       62.00820      103.84485
H         34.18367       63.31797      103.71860
H         35.64850       64.44203      102.12871
H         36.40538       64.19234      103.63436
H         36.81565       63.20566      102.31064
N         33.80220       57.58727      101.13141
C         34.50523       56.54720      101.87615
C         34.76667       55.29222      101.04935
O         35.37394       54.37128      101.57882
C         33.78651       56.26151      103.22009
C         32.33695       55.84776      103.14595
O         31.75813       55.52927      104.17185
O         31.65038       55.85340      101.99126
H         32.80427       57.47397      100.92584
H         35.52459       56.90039      102.14868
H         33.82935       57.17457      103.85198
H         34.34921       55.46135      103.74889
N         34.44765       55.21641       99.72576
C         34.87677       54.11992       98.87004
C         34.28695       52.78517       99.25976
O         35.04224       51.86802       99.54864
H         33.96634       56.00355       99.27232
H         35.98778       54.06487       98.88989
H         34.57860       54.33750       97.82270
N         32.93848       52.60003       99.25196
C         32.28697       51.31943       99.55042
C         31.46449       50.78018       98.38085
O         30.97043       49.66757       98.49603
C         31.42357       51.43587      100.82867
C         30.34435       52.48198      100.78045
O         29.64944       52.76769      101.88911
O         30.18674       53.19105       99.80247
H         32.36377       53.41822       99.01633
H         33.06048       50.54874       99.75749
H         32.10344       51.71581      101.66317
H         30.96349       50.45661      101.07490
N         31.26327       51.49702       97.23723
C         30.51736       51.00949       96.08873
C         29.21189       51.74883       95.88202
O         28.55914       51.47510       94.88358
H         31.64491       52.44051       97.15469
H         30.26567       49.93196       96.19010
H         31.16068       51.12035       95.19006
N         28.71235       52.61642       96.81255
C         27.37658       53.19801       96.72479
C         27.37315       54.69467       97.00764
O         28.35835       55.23276       97.49611
C         26.43324       52.46091       97.70984
C         26.23031       50.98720       97.31971
O         26.90662       52.56061       99.03125
H         29.24347       52.78156       97.67267
H         26.97499       53.06664       95.69593
H         25.42819       52.93258       97.67373
H         27.66826       51.93228       99.14324
H         25.53302       50.50072       98.03360
H         25.79716       50.92069       96.29939
H         27.19030       50.42859       97.33729
N         26.26852       55.42801       96.68173
C         26.12090       56.86791       96.87757
C         24.84914       57.13164       97.67995
O         23.79141       56.63407       97.31656
C         26.07320       57.59195       95.49605
C         27.35799       57.35226       94.65268
C         25.81612       59.10664       95.64095
C         28.66444       57.87509       95.27069
H         25.48598       54.93766       96.21953
H         26.98557       57.28839       97.43037
H         25.21961       57.17591       94.91613
H         27.22926       57.84770       93.66545
H         27.47465       56.26475       94.46119
H         26.61279       59.60093       96.22790
H         25.76774       59.58779       94.64108
H         24.84682       59.29801       96.14222
H         29.50323       57.66877       94.57424
H         28.63296       58.97025       95.43973
H         28.89445       57.37042       96.22798
N         24.87941       57.97958       98.74416
C         23.72127       58.36492       99.54663
C         23.32639       59.79881       99.21546
O         23.93888       60.40017       98.34651
C         24.05827       58.20667      101.05218
C         24.24939       56.73501      101.44869
O         25.18105       58.99077      101.38116
H         25.76694       58.44596       98.95817
H         22.83649       57.73548       99.30536
H         23.21320       58.56342      101.67526
H         25.99726       58.42707      101.34625
H         23.31579       56.16417      101.25827
H         25.07390       56.28304      100.86541
H         24.48976       56.66357      102.53188
N         22.28363       60.40366       99.85375
C         21.82604       61.76295       99.55421
C         22.94249       62.77638       99.72768
O         23.16835       63.56348       98.82035
C         20.61247       62.16715      100.42843
C         19.37983       61.30632      100.13200
O         20.93715       62.07998      101.79246
H         21.78916       59.86920      100.58214
H         21.48986       61.80867       98.49301
H         20.35730       63.22189      100.16513
H         20.31350       62.68118      102.27733
H         19.55668       60.24046      100.38149
H         18.52115       61.66780      100.73593
H         19.10909       61.38550       99.05769
N         23.68521       62.80756      100.86691
C         24.79279       63.73490      101.07811
C         25.85785       63.58927       99.99465
O         26.21544       64.58998       99.38785
C         25.37165       63.58635      102.51181
C         25.99831       62.21807      102.83808
C         26.42115       62.13078      104.31173
C         27.06121       60.77660      104.67337
N         26.10182       59.67047      104.62848
H         23.45082       62.13357      101.60846
H         24.39350       64.77393      101.03026
H         24.53452       63.76835      103.22177
H         26.13430       64.37867      102.68044
H         26.90132       62.06994      102.21464
H         25.26484       61.42042      102.62411
H         25.54644       62.30820      104.97510
H         27.17102       62.92870      104.50252
H         27.45749       60.84694      105.70966
H         27.91678       60.56823      103.99274
H         26.58493       58.78664      104.90680
H         25.31393       59.84677      105.29278
H         25.72414       59.53923      103.66941
N         26.39306       62.37218       99.68203
C         27.45058       62.19660       98.68208
C         26.97353       62.53520       97.26809
O         27.81024       62.65831       96.38457
C         27.98181       60.73929       98.68729
C         28.52620       60.28698      100.05813
C         28.89490       58.82577      100.07315
O         30.00287       58.47024      100.42794
O         27.98254       57.88775       99.76982
H         26.03574       61.54880      100.18428
H         28.28676       62.88000       98.95216
H         28.78535       60.62587       97.92590
H         27.14116       60.08112       98.40211
H         27.75304       60.40647      100.83657
H         29.40004       60.91544      100.33764
N         25.64711       62.65081       96.97238
C         25.11888       62.94691       95.65718
H         24.47774       63.85212       95.71789
H         25.91627       63.12449       94.90779
H         24.49058       62.09598       95.31654
H         24.95613       62.49177       97.70621
Ca        29.60129       54.97888      101.97720
O         28.15314       57.05568      103.49217
H         27.50998       56.30523      103.42715
H         28.94632       56.66561      103.93910
O         26.85993       54.41036      101.18268
H         25.96606       54.12855      100.86633
H         27.18086       53.63995      101.71369

Ca 1.0



