%chk=holoCaM.loop3.water2.frame315.chk
%nprocshared=20
%mem=10GB
%nosave
#b3lyp/svp scf=(tight,noincore,xqc) Test 
#IOP(5/87=12) Density=Current Pop=(MK,readradii) iop(6/33=2) iop(6/42=6)

holoCaM.loop3.water2.frame315 

   0  1 
C          2.07464       35.98118       84.87722
C          1.35113       37.29225       84.83633
O          0.34330       37.44279       85.50736
H          3.11235       36.13749       85.23847
H          1.55813       35.26587       85.55161
H          2.10503       35.54834       83.85460
N          1.82461       38.29882       84.05568
C          1.16543       39.59352       83.91744
C         -0.20749       39.40891       83.29651
O         -0.29097       38.87447       82.19928
C          2.07414       40.51707       83.07566
C          1.54299       41.88688       82.75542
O          1.51036       42.22989       81.58781
O          1.18176       42.77561       83.70559
H          2.70075       38.12657       83.53678
H          1.05883       40.03962       84.92029
H          2.30827       40.00775       82.11386
H          3.03044       40.65349       83.61792
N         -1.33118       39.83014       83.95359
C         -2.68372       39.64765       83.42978
C         -3.31371       40.97331       83.01212
O         -4.42636       40.94447       82.50481
C         -3.58047       38.93847       84.47314
C         -2.99793       37.60151       84.95578
C         -3.94668       36.89483       85.93732
C         -3.33908       35.62503       86.56395
N         -3.02132       34.59749       85.57086
H         -1.22748       40.31066       84.86118
H         -2.65443       39.01478       82.51573
H         -4.57794       38.75202       84.01708
H         -3.71767       39.60288       85.35537
H         -2.04685       37.80718       85.48023
H         -2.80641       36.94712       84.07956
H         -4.89645       36.63856       85.41918
H         -4.18329       37.59102       86.77172
H         -4.07792       35.20985       87.28539
H         -2.42021       35.88836       87.13377
H         -2.25453       34.91960       84.93881
H         -2.69001       33.73906       86.06807
H         -3.87236       34.35671       85.01320
N         -2.65914       42.16498       83.15768
C         -3.18533       43.44701       82.69237
C         -2.29708       44.05210       81.60188
O         -2.60269       45.14081       81.13451
C         -3.40931       44.41403       83.87596
C         -2.16973       44.75664       84.65399
O         -1.77589       45.91043       84.70297
O         -1.52631       43.80896       85.35721
H         -1.72380       42.17470       83.58279
H         -4.18632       43.30965       82.22753
H         -4.14736       43.96729       84.57739
H         -3.85868       45.35015       83.47658
N         -1.23346       43.36831       81.08567
C         -0.45654       43.81343       79.94045
C          0.50261       44.96532       80.17575
O          1.19681       45.29199       79.22323
H         -1.02539       42.42127       81.42848
H         -1.14546       44.05983       79.10374
H          0.16689       42.96038       79.59643
N          0.62018       45.64377       81.35825
C          1.54049       46.78011       81.47219
C          3.01866       46.38418       81.42678
O          3.83512       47.27407       81.21898
C          1.23377       47.67978       82.69221
C          1.37918       47.04112       84.05140
N          1.19381       47.79138       85.16137
O          1.65474       45.85817       84.16464
H          0.00482       45.40604       82.14807
H          1.34860       47.42950       80.58741
H          0.19198       48.05734       82.60474
H          1.91531       48.55815       82.65013
H          0.96081       48.79256       85.08572
H          1.28955       47.37586       86.09850
N          3.45110       45.10372       81.63760
C          4.85228       44.70131       81.55767
C          5.47238       44.35502       82.90524
O          6.65040       44.04505       82.93153
H          2.76455       44.37868       81.88274
H          5.47286       45.52503       81.14007
H          4.94086       43.84177       80.85951
N          4.76619       44.47733       84.06825
C          5.36351       44.40923       85.40092
C          4.58230       43.47796       86.31129
O          3.38147       43.64682       86.43082
C          5.29879       45.83046       85.99595
C          6.19880       46.77856       85.24355
C          5.66271       47.78231       84.41980
C          7.59311       46.66435       85.36993
C          6.51198       48.65559       83.73179
C          8.43876       47.54642       84.69347
C          7.90050       48.54563       83.87048
O          8.70567       49.40433       83.21302
H          3.78372       44.75646       84.02172
H          6.42698       44.08980       85.37009
H          5.60536       45.83706       87.06492
H          4.24271       46.18023       85.95187
H          4.59087       47.88253       84.30039
H          8.02439       45.90076       86.00570
H          6.09028       49.42131       83.09304
H          9.51104       47.45302       84.81214
H          9.66978       49.36883       83.29342
N          5.22702       42.51933       87.04911
C          4.54465       41.70154       88.05336
C          5.11828       41.98125       89.43972
O          6.28842       41.73396       89.68082
C          4.57347       40.18084       87.69774
C          6.00102       39.59400       87.52144
C          3.72147       39.94786       86.44287
C          6.01323       38.07798       87.30757
H          6.24308       42.40420       86.93667
H          3.47045       41.97756       88.10068
H          4.07789       39.64048       88.53374
H          6.59863       39.76862       88.43456
H          6.51608       40.08129       86.66636
H          2.70320       40.35520       86.59781
H          4.18478       40.44752       85.56903
H          3.59615       38.86933       86.22793
H          5.52008       37.56654       88.16199
H          5.50970       37.79038       86.36347
H          7.06388       37.72504       87.24295
N          4.31919       42.50921       90.41560
C          4.76490       42.70445       91.79549
C          4.99962       41.36272       92.48305
O          4.80664       40.33031       91.85996
C          3.70997       43.51858       92.57438
O          2.49421       42.82045       92.65720
H          3.35541       42.77263       90.16929
H          5.70463       43.29951       91.79636
H          3.57529       44.50984       92.07964
H          4.05675       43.74020       93.60476
H          1.83543       43.30493       92.09510
N          5.39190       41.29904       93.78578
C          5.54556       40.04161       94.51553
C          4.23188       39.27866       94.57128
O          4.20824       38.10848       94.21894
C          6.03021       40.31077       95.94393
H          5.56978       42.18323       94.28714
H          6.32034       39.41378       94.01965
H          6.16547       39.34992       96.48640
H          7.00828       40.83609       95.91789
H          5.30151       40.93706       96.50144
N          3.09123       39.90243       94.98557
C          1.78678       39.24913       95.07738
C          1.40347       38.57866       93.77562
O          1.05884       37.40467       93.79609
C          0.71154       40.27459       95.45828
H          3.15340       40.90346       95.22722
H          1.81684       38.47752       95.87882
H          0.63900       41.07412       94.68929
H         -0.27811       39.77712       95.54953
H          0.95919       40.74141       96.43495
N          1.47691       39.25649       92.59795
C          1.14339       38.65763       91.30998
C          1.94829       37.38891       91.07852
O          1.35031       36.34155       90.87275
C          1.38492       39.65712       90.16265
C          0.42998       40.86156       90.22339
C          0.63489       41.73366       89.02392
O          0.48946       41.19165       87.80333
O          0.93423       42.91060       89.14306
H          1.81556       40.22939       92.62528
H          0.06440       38.38202       91.30059
H          1.20705       39.12397       89.20179
H          2.43852       40.01124       90.17794
H          0.58106       41.44799       91.15227
H         -0.61956       40.49801       90.20642
N          3.30602       37.39838       91.12935
C          4.09539       36.19940       90.95729
H          5.17391       36.43719       91.07743
H          3.81324       35.44769       91.72575
H          3.93054       35.77776       89.94390
H          3.79622       38.27698       91.32094
Ca         0.78572       42.26800       85.85986
O          2.12288       45.67808       87.92403
H          1.51235       45.65728       88.70198
H          3.02078       45.82249       88.31508
O         -1.15421       45.24022       87.96737
H         -1.14546       45.03038       88.93479
H         -2.11352       45.33974       87.74362

Ca 1.0



