%chk=holoCaM-CaMKII.loop4.water2.frame275.chk
%nprocshared=20
%mem=10GB
%nosave
#b3lyp/svp scf=(tight,noincore,xqc) Test 
#IOP(5/87=12) Density=Current Pop=(MK,readradii) iop(6/33=2) iop(6/42=6)

holoCaM-CaMKII.loop4.water2.frame275 

   -3  1 
C         57.52702       30.19893       92.04533
C         57.14800       29.29802       93.18220
O         55.97552       29.23851       93.51694
H         58.61463       30.14435       91.82914
H         56.97205       29.89095       91.13389
H         57.26470       31.24727       92.29681
N         58.08794       28.53599       93.80580
C         57.76621       27.59820       94.87330
C         57.31147       28.33810       96.13247
O         57.95487       29.30582       96.51412
C         58.97836       26.68950       95.16298
C         58.52230       25.50518       95.95094
O         58.94793       25.29806       97.07277
O         57.58584       24.69629       95.41632
H         59.06169       28.58597       93.46761
H         56.95451       26.93517       94.49502
H         59.78331       27.25907       95.67753
H         59.38553       26.28352       94.21246
N         56.21069       27.92441       96.82773
C         55.62311       28.64997       97.95830
C         55.81546       27.86669       99.25540
O         56.48152       28.38558      100.14186
C         54.13136       28.96691       97.62691
C         54.07405       29.89632       96.38433
C         53.39450       29.60005       98.82082
C         52.67603       30.09711       95.80222
H         55.74667       27.06093       96.52006
H         56.14760       29.62199       98.10602
H         53.61942       28.01092       97.38547
H         54.67065       29.44807       95.57052
H         54.52135       30.88452       96.63202
H         53.86398       30.56364       99.10887
H         52.32656       29.77466       98.57873
H         53.40738       28.91545       99.69427
H         52.75106       30.74186       94.89985
H         52.24867       29.11834       95.49639
H         51.99654       30.59645       96.51951
N         55.28763       26.62101       99.45044
C         55.52368       25.84393      100.67916
C         57.00748       25.47037      100.88306
O         57.31917       24.91605      101.92779
C         54.62309       24.57399      100.73432
C         54.88767       23.62207       99.60440
O         54.25135       22.58846       99.48148
O         55.80599       23.97426       98.69945
H         54.68805       26.22869       98.71163
H         55.21522       26.47674      101.54113
H         53.55789       24.88869      100.68406
H         54.78023       24.04669      101.70027
N         57.97944       25.78222       99.96921
C         59.40305       25.63697      100.23747
C         59.98613       24.24808      100.07422
O         61.16913       24.11697      100.36139
H         57.73180       26.27663       99.10527
H         59.61474       26.02411      101.25864
H         59.96398       26.28621       99.53060
N         59.28203       23.16909       99.61671
C         59.90457       21.84520       99.52385
C         61.05678       21.75907       98.50799
O         61.75996       20.76091       98.53892
C         58.85729       20.73034       99.27707
C         58.19648       20.74661       97.92693
O         58.50751       21.56613       97.08446
O         57.26057       19.82476       97.63467
H         58.28303       23.27741       99.38906
H         60.33270       21.63497      100.53052
H         58.06750       20.81040      100.05473
H         59.34945       19.74065       99.39040
N         61.30400       22.74007       97.58163
C         62.43867       22.71185       96.65819
C         62.05286       22.61688       95.18606
O         62.96228       22.62662       94.36442
H         60.68488       23.55623       97.52975
H         63.10566       21.84903       96.87255
H         63.03555       23.63443       96.82073
N         60.76496       22.45043       94.76838
C         60.38005       22.14962       93.38645
C         59.04230       22.77288       93.03744
O         58.09436       22.61036       93.79292
C         60.24617       20.63040       93.19786
C         61.61036       19.92912       93.19861
C         61.45588       18.46207       92.91159
N         60.82177       17.65135       93.78878
O         61.91449       17.99780       91.87839
H         60.03327       22.38131       95.48324
H         61.14496       22.51162       92.66174
H         59.79230       20.44394       92.19819
H         59.57004       20.20971       93.97435
H         62.13373       20.05404       94.16864
H         62.23359       20.38956       92.39889
H         60.44680       18.02386       94.67325
H         60.71978       16.64562       93.58939
N         58.87785       23.47440       91.88272
C         57.62030       24.13301       91.54218
C         56.58649       23.11014       91.05931
O         56.78286       22.50768       90.01220
C         57.84252       25.25189       90.48127
C         56.55707       26.07136       90.27306
C         58.96488       26.21803       90.90746
H         59.68960       23.57440       91.25443
H         57.25967       24.65096       92.46036
H         58.14103       24.79133       89.51304
H         55.72855       25.43246       89.91455
H         56.24740       26.55650       91.22513
H         56.72456       26.86455       89.51388
H         59.10098       27.01139       90.14357
H         58.72101       26.68916       91.87942
H         59.94264       25.70572       91.00466
N         55.45487       22.87474       91.78220
C         54.38065       21.95823       91.37298
C         53.63884       22.54213       90.16133
O         53.88806       23.68858       89.82032
C         53.40346       21.82220       92.58140
C         52.34871       20.73910       92.57705
N         51.43396       20.70657       93.57488
O         52.32387       19.87442       91.71845
H         55.36677       23.36570       92.68023
H         54.83633       20.96977       91.14456
H         52.89888       22.80104       92.70722
H         53.99835       21.62947       93.49885
H         51.44357       21.41891       94.32018
H         50.70875       19.97442       93.60152
N         52.68956       21.83841       89.47731
C         51.83027       22.45068       88.46666
C         50.90841       23.45881       89.13722
O         50.74976       24.56061       88.63417
C         50.96139       21.39077       87.75362
C         50.23901       21.99687       86.56777
C         50.97575       22.45538       85.45973
C         48.83905       22.11298       86.55101
C         50.32725       23.01938       84.35876
C         48.19156       22.68493       85.44851
C         48.93519       23.13884       84.34822
O         48.32625       23.68946       83.27836
H         52.55061       20.84529       89.68339
H         52.46958       22.93591       87.69679
H         50.24454       20.95358       88.48394
H         51.59772       20.56339       87.37246
H         52.05518       22.37092       85.44418
H         48.24935       21.77215       87.39246
H         50.90923       23.36416       83.51275
H         47.11276       22.77586       85.44991
H         47.36553       23.79330       83.22789
N         50.26499       23.12607       90.29612
C         49.38432       24.03261       91.03242
C         50.11013       25.26257       91.58513
O         49.42447       26.13389       92.10212
C         48.68668       23.27909       92.19019
C         47.74945       22.17459       91.66945
C         47.13471       21.40578       92.80312
O         46.37246       22.03535       93.71751
O         47.31587       20.20187       92.89539
H         50.41378       22.17637       90.66902
H         48.59655       24.39715       90.33567
H         48.07148       23.98918       92.78670
H         49.46214       22.84410       92.85976
H         48.30400       21.46572       91.01960
H         46.93854       22.63484       91.06398
N         51.46527       25.43042       91.49038
C         52.15695       26.65090       91.90629
C         52.70967       27.40774       90.70183
O         53.07488       28.56354       90.86557
C         53.28885       26.32217       92.89968
C         52.75413       25.59256       94.14012
C         53.85128       25.21912       95.08785
O         53.79074       25.61146       96.37080
O         54.77581       24.51794       94.71719
H         52.03642       24.68154       91.08970
H         51.43646       27.34018       92.39844
H         53.79935       27.25987       93.21402
H         54.03521       25.67514       92.38480
H         52.24476       24.65840       93.83432
H         52.01786       26.23685       94.66570
N         52.78799       26.83727       89.46382
C         53.20471       27.53183       88.26602
H         54.11660       27.04901       87.85746
H         52.39387       27.45032       87.50927
H         53.40607       28.60647       88.44703
H         52.55151       25.85294       89.33609
Ca        56.47005       23.27846       96.72234
O         53.74790       21.62651       96.29459
H         53.24364       20.77584       96.34338
H         53.31121       22.21353       96.96107
O         56.23848       20.62536       94.56114
H         55.77453       19.89677       95.04260
H         57.19197       20.50052       94.79312

Ca 1.0



