%chk=holoCaM-CaMKII.loop3.water2.frame427.chk
%nprocshared=20
%mem=10GB
%nosave
#b3lyp/svp scf=(tight,noincore,xqc) Test 
#IOP(5/87=12) Density=Current Pop=(MK,readradii) iop(6/33=2) iop(6/42=6)

holoCaM-CaMKII.loop3.water2.frame427 

   0  1 
C         73.64257       62.09082       45.47697
C         73.71584       62.07726       46.96979
O         74.77591       61.79117       47.51072
H         73.36542       63.10892       45.13148
H         74.62689       61.82109       45.03732
H         72.87999       61.36139       45.13715
N         72.62272       62.41006       47.71258
C         72.68487       62.47126       49.16166
C         72.90288       61.08820       49.74092
O         72.06037       60.21648       49.57866
C         71.43573       63.13662       49.75269
C         71.63930       63.49461       51.19505
O         72.76885       63.14675       51.84670
O         70.83024       64.22012       51.74144
H         71.75412       62.68449       47.22781
H         73.53734       63.14333       49.40837
H         70.52343       62.51768       49.61604
H         71.29064       64.10071       49.21617
N         74.05833       60.82298       50.39997
C         74.42413       59.51116       50.90793
C         73.50507       59.05419       52.03095
O         73.00191       57.94225       51.95459
C         75.90076       59.54121       51.35188
C         76.48175       58.13844       51.56448
C         77.99970       58.21898       51.79136
C         78.67060       56.84277       51.93520
N         78.55297       56.03133       50.71988
H         74.74591       61.58580       50.47676
H         74.36952       58.79205       50.05906
H         76.03360       60.17052       52.25802
H         76.48073       59.99941       50.51850
H         76.28682       57.55337       50.64223
H         75.98524       57.63755       52.42326
H         78.19185       58.80605       52.71567
H         78.47750       58.75253       50.93924
H         78.23639       56.29459       52.79928
H         79.75040       57.01397       52.14220
H         77.56078       55.75361       50.55000
H         78.92405       56.55585       49.89418
H         79.11308       55.15697       50.83995
N         73.22729       59.86699       53.09431
C         72.41041       59.45042       54.23800
C         71.02066       60.08482       54.25367
O         70.24358       59.75188       55.13843
C         73.18081       59.72319       55.54660
C         73.47374       61.18657       55.75162
O         72.46517       62.07007       55.86913
O         74.62786       61.57848       55.81687
H         73.60579       60.82624       53.08710
H         72.22547       58.35487       54.18780
H         74.13735       59.15630       55.51684
H         72.59507       59.35385       56.41598
N         70.61258       60.95522       53.28944
C         69.25595       61.46733       53.19257
C         68.82234       62.32541       54.36141
O         67.82553       61.98513       54.98349
H         71.26132       61.21286       52.53756
H         68.55880       60.60687       53.07997
H         69.16699       62.08344       52.27291
N         69.47620       63.48375       54.67791
C         68.98707       64.41941       55.69698
C         68.66515       65.80235       55.12635
O         68.14550       66.61917       55.87500
C         69.99504       64.57957       56.85231
C         71.22474       65.35175       56.43477
N         71.48847       66.56855       56.96469
O         71.97636       64.88881       55.59510
H         70.32952       63.71513       54.15323
H         68.04666       64.02146       56.13728
H         70.27867       63.58766       57.26447
H         69.48480       65.13971       57.66686
H         70.86030       66.99486       57.66163
H         72.31768       67.09623       56.65924
N         68.97129       66.15568       53.84244
C         68.69851       67.46938       53.28444
C         69.93248       68.19990       52.77584
O         69.73540       69.26543       52.21047
H         69.39850       65.47312       53.21047
H         68.19132       68.13051       54.01848
H         68.00678       67.32955       52.42582
N         71.21173       67.71543       52.88872
C         72.36596       68.41702       52.30244
C         73.61535       67.50107       52.23149
O         73.20537       66.28012       51.71762
C         72.63378       69.76267       53.03172
C         72.98780       69.64155       54.50013
C         74.22654       69.11750       54.91273
C         72.08763       70.10437       55.47692
C         74.55571       69.06411       56.27264
C         72.41568       70.04193       56.83440
C         73.65044       69.52669       57.23779
O         73.95614       69.48537       58.55067
H         71.36244       66.80183       53.34123
H         72.10885       68.63386       51.24081
H         71.72479       70.38687       52.93431
H         73.43050       70.34472       52.52747
H         74.94998       68.77143       54.18761
H         71.12893       70.51711       55.18960
H         75.51717       68.67162       56.57726
H         71.71096       70.40174       57.57346
H         74.80299       69.14498       58.87291
N         74.63807       68.03645       51.31248
C         75.86857       67.20585       51.24220
C         77.10945       67.92316       51.77092
O         77.07658       69.10504       52.07585
C         76.14233       66.74944       49.76949
C         76.29091       67.96006       48.81127
C         75.07268       65.75647       49.29067
C         76.82186       67.57701       47.42762
H         74.82315       69.05413       51.43317
H         75.75505       66.29229       51.87017
H         77.10041       66.19250       49.75115
H         77.02749       68.67547       49.23464
H         75.31790       68.48709       48.70840
H         75.03223       64.89443       49.98990
H         74.07399       66.23571       49.23872
H         75.32362       65.34501       48.29181
H         76.94182       68.49421       46.81311
H         77.81626       67.09016       47.52466
H         76.13066       66.89703       46.89223
N         78.27208       67.21861       51.85695
C         79.56715       67.79306       52.18569
C         80.52744       67.54440       51.02693
O         80.14161       66.93546       50.04052
C         80.07893       67.14973       53.48476
O         80.21037       65.76239       53.32431
H         78.25141       66.21212       51.65050
H         79.48873       68.88963       52.34587
H         79.34235       67.37547       54.29038
H         81.06082       67.58114       53.77418
H         80.20057       65.36820       54.23463
N         81.81815       67.97840       51.09582
C         82.80881       67.67769       50.06419
C         82.97694       66.17765       49.90814
O         83.06785       65.70434       48.78348
C         84.15743       68.30770       50.42156
H         82.11396       68.50986       51.92685
H         82.49072       68.11973       49.09303
H         84.89918       68.09364       49.62144
H         84.04687       69.40997       50.50477
H         84.53915       67.90766       51.38454
N         82.98739       65.36585       51.00321
C         83.09563       63.91322       50.93493
C         81.96829       63.30207       50.11686
O         82.25006       62.59553       49.15962
C         83.07786       63.31851       52.35065
H         82.89795       65.80621       51.93308
H         84.07099       63.64603       50.47035
H         82.12823       63.56170       52.87481
H         83.18627       62.21400       52.30687
H         83.91949       63.73103       52.94649
N         80.66307       63.52119       50.44986
C         79.53895       62.90154       49.74195
C         79.41667       63.36772       48.29233
O         78.60919       62.79423       47.57367
C         78.21420       63.19182       50.48303
C         78.19238       62.58857       51.89881
C         76.99246       63.04991       52.67478
O         75.86444       62.83646       52.26680
O         77.16202       63.70331       53.83892
H         80.47223       64.12821       51.25906
H         79.69965       61.80006       49.73403
H         77.35070       62.77472       49.91725
H         78.08961       64.28809       50.53670
H         79.09050       62.89240       52.47299
H         78.19497       61.48062       51.82405
N         80.16663       64.39070       47.79002
C         80.11110       64.83161       46.41113
H         81.12171       64.73708       45.95966
H         79.40050       64.23662       45.80092
H         79.80522       65.89764       46.37629
H         80.81027       64.90017       48.40207
Ca        73.50647       64.67505       53.27293
O         74.41549       64.37834       57.19850
H         75.10234       64.20378       57.88896
H         73.59979       63.94033       57.54916
O         75.89161       66.20754       54.82605
H         76.27822       66.57243       55.66025
H         76.62482       66.28490       54.16646

Ca 1.0



