%chk=holoCaM.loop2.water0.frame31.chk
%nprocshared=20
%mem=10GB
%nosave
#b3lyp/svp scf=(tight,noincore,xqc) Test 
#IOP(5/87=12) Density=Current Pop=(MK,readradii) iop(6/33=2) iop(6/42=6)

holoCaM.loop2.water0.frame31 

   -2  1 
C         89.62367       91.78348       -5.67394
C         89.75927       91.78079       -7.16539
O         89.18437       90.90976       -7.79794
H         88.54756       91.85169       -5.40862
H         90.04253       90.84275       -5.25957
H         90.15643       92.64470       -5.22029
N         90.52434       92.71508       -7.79765
C         90.66562       92.79660       -9.24556
C         91.92084       92.05512       -9.68676
O         92.82582       92.64918      -10.25672
C         90.63981       94.28457       -9.65903
C         90.69369       94.46970      -11.14526
O         91.62498       95.07706      -11.64588
O         89.71296       93.98077      -11.92740
H         91.03818       93.40146       -7.22373
H         89.80554       92.29683       -9.74444
H         91.50237       94.80777       -9.18807
H         89.70518       94.75911       -9.29059
N         92.01909       90.71474       -9.46020
C         93.13330       89.89615       -9.91604
C         93.17704       89.84938      -11.43033
O         94.23447       90.11004      -11.98777
C         93.01761       88.47468       -9.35723
H         91.25662       90.24606       -8.95255
H         94.08829       90.30961       -9.51863
H         92.08231       87.98146       -9.69425
H         93.88883       87.86722       -9.68578
H         93.02585       88.51215       -8.24621
N         92.06282       89.54096      -12.16853
C         92.08970       89.46350      -13.63275
C         92.54545       90.75819      -14.30346
O         92.85597       90.72283      -15.48570
C         90.75089       88.95242      -14.21100
C         89.54807       89.82837      -13.99394
O         89.61909       91.02019      -13.37662
O         88.45801       89.42933      -14.37205
H         91.18299       89.33390      -11.67032
H         92.85120       88.69276      -13.88459
H         90.53206       87.96879      -13.74039
H         90.85837       88.79067      -15.30466
N         92.67332       91.91775      -13.60043
C         93.31606       93.11116      -14.11236
C         92.60313       93.72615      -15.28114
O         93.23268       93.96739      -16.30100
H         92.35800       91.95722      -12.62413
H         94.37159       92.88108      -14.37476
H         93.33422       93.87014      -13.30116
N         91.29036       94.05687      -15.17681
C         90.56770       94.82221      -16.18444
C         90.03270       96.12735      -15.58603
O         89.29554       96.83009      -16.26274
C         89.50392       93.93357      -16.86632
C         88.40123       93.38585      -15.99977
N         87.49605       92.53620      -16.53919
O         88.31477       93.69392      -14.82301
H         90.78859       93.78737      -14.31776
H         91.24731       95.12164      -17.01249
H         90.04236       93.06689      -17.31097
H         89.03765       94.50235      -17.69970
H         87.56183       92.26132      -17.53125
H         86.73473       92.14324      -15.96690
N         90.43985       96.55584      -14.34907
C         90.07154       97.82863      -13.74976
C         88.63262       97.93468      -13.29085
O         88.27837       99.00283      -12.81226
H         91.13172       96.00741      -13.82824
H         90.29601       98.64263      -14.47335
H         90.70463       97.99588      -12.85082
N         87.73824       96.91196      -13.41886
C         86.31975       97.05429      -13.10360
C         85.82258       95.93276      -12.20767
O         85.97476       94.77183      -12.55644
C         85.49823       97.09327      -14.41166
C         85.83417       98.34028      -15.24667
O         85.66040       95.91682      -15.16769
H         88.04693       96.02296      -13.83002
H         86.12103       98.02245      -12.59288
H         84.42287       97.17729      -14.14062
H         86.55507       95.94537      -15.59675
H         85.64524       99.25926      -14.64997
H         86.89933       98.33849      -15.56067
H         85.19629       98.37224      -16.15322
N         85.15037       96.22592      -11.05725
C         84.52520       95.22077      -10.19729
C         83.45925       94.46442      -10.98394
O         82.58201       95.08164      -11.57200
C         83.92740       95.88624       -8.91332
C         85.08043       96.48598       -8.05872
C         83.12053       94.86964       -8.07717
C         84.61173       97.26525       -6.82906
H         85.03721       97.21966      -10.80791
H         85.29645       94.50088       -9.84827
H         83.22938       96.69558       -9.22335
H         85.67442       97.19436       -8.67052
H         85.76340       95.67177       -7.72824
H         82.65958       95.34620       -7.19067
H         82.27310       94.46413       -8.66272
H         83.76799       94.03352       -7.74203
H         83.94363       98.09734       -7.13511
H         84.08757       96.61371       -6.10209
H         85.49642       97.69103       -6.31026
N         83.45889       93.10236      -10.96774
C         82.47083       92.25542      -11.63035
C         81.48286       91.76657      -10.58312
O         81.62205       92.14449       -9.43185
C         83.18408       91.03186      -12.25548
C         84.38075       91.37201      -13.09991
O         85.37564       92.08512      -12.53941
O         84.50890       90.90878      -14.22193
H         84.15889       92.62966      -10.38038
H         81.92315       92.82574      -12.41240
H         82.46753       90.40562      -12.82992
H         83.58362       90.41187      -11.42119
N         80.45544       90.92627      -10.88341
C         79.55885       90.42265       -9.84641
C         80.30239       89.56144       -8.81275
O         80.18675       89.88311       -7.63875
C         78.34829       89.68076      -10.45051
C         77.34691       89.27440       -9.38606
C         76.72687       90.24429       -8.57191
C         77.01875       87.92068       -9.19899
C         75.80824       89.86353       -7.58914
C         76.09475       87.54558       -8.21721
C         75.49195       88.51541       -7.41204
H         80.30402       90.64738      -11.86534
H         79.13350       91.30814       -9.32346
H         78.68931       88.79891      -11.02582
H         77.83149       90.35859      -11.16420
H         76.95064       91.29623       -8.69186
H         77.47637       87.15481       -9.81184
H         75.34024       90.61476       -6.96515
H         75.84559       86.50157       -8.07969
H         74.77860       88.22302       -6.65194
N         81.08733       88.47507       -9.13054
C         81.73854       87.62707       -8.13114
C         82.90344       88.29153       -7.40285
O         83.46817       87.65203       -6.52573
C         82.19224       86.40821       -8.93900
C         82.52919       87.03308      -10.27289
C         81.35555       87.98922      -10.46954
H         81.00725       87.28739       -7.36434
H         82.99083       85.79395       -8.46967
H         81.30754       85.75344       -9.11173
H         83.45792       87.63475      -10.13509
H         82.68748       86.32292      -11.11128
H         81.67831       88.77367      -11.17677
H         80.45861       87.45526      -10.84589
N         83.28575       89.57124       -7.66070
C         84.26314       90.29580       -6.85971
C         83.50557       91.11061       -5.82962
O         83.79451       90.98247       -4.64849
C         85.15518       91.16968       -7.76061
C         86.02580       90.30223       -8.68555
C         86.91215       91.10305       -9.59753
O         86.89467       92.45035       -9.59303
O         87.68052       90.51661      -10.34212
H         82.78758       90.10539       -8.38213
H         84.93300       89.60211       -6.30191
H         85.82614       91.78933       -7.12507
H         84.51675       91.84916       -8.35563
H         85.38319       89.65195       -9.31582
H         86.67593       89.65763       -8.05411
N         82.46445       91.90593       -6.20121
C         81.62118       92.62612       -5.27222
H         80.58355       92.23456       -5.35155
H         81.95733       92.51498       -4.22139
H         81.61479       93.70212       -5.53832
H         82.21429       91.97033       -7.19035
Ca        87.57229       91.78298      -12.85816

Ca 1.0



