%chk=holoCaM-CaMKII.loop3.water2.frame170.chk
%nprocshared=20
%mem=10GB
%nosave
#b3lyp/svp scf=(tight,noincore,xqc) Test 
#IOP(5/87=12) Density=Current Pop=(MK,readradii) iop(6/33=2) iop(6/42=6)

holoCaM-CaMKII.loop3.water2.frame170 

   0  1 
C         95.78915       43.93992       16.62870
C         94.95388       42.96109       17.40055
O         94.14645       43.38197       18.21133
H         96.86533       43.72214       16.79714
H         95.56528       43.84486       15.54516
H         95.58137       44.98265       16.94934
N         95.08874       41.62833       17.15144
C         94.35354       40.53983       17.80561
C         94.91235       40.26438       19.20666
O         95.48036       39.20349       19.42982
C         94.46887       39.30647       16.87030
C         93.71739       38.05883       17.24122
O         94.32731       37.00375       17.30372
O         92.37604       38.03799       17.37087
H         95.73595       41.37910       16.38589
H         93.27848       40.79799       17.86482
H         95.54415       39.04868       16.74653
H         94.09029       39.59601       15.87279
N         94.79824       41.18777       20.20532
C         95.36296       41.00851       21.53906
C         94.67764       39.85971       22.24011
O         95.35615       38.94115       22.67769
C         95.24210       42.29411       22.38991
C         96.00558       43.47324       21.75675
C         96.06218       44.67962       22.70516
C         96.86909       45.85673       22.12690
N         96.20836       46.48092       20.97858
H         94.28700       42.05326       20.02295
H         96.45237       40.79415       21.44959
H         95.69362       42.07802       23.38401
H         94.17756       42.57712       22.54453
H         95.51690       43.75872       20.80450
H         97.04913       43.15652       21.54000
H         96.57091       44.35304       23.63876
H         95.03778       45.02116       22.96892
H         97.88790       45.51283       21.83931
H         96.98343       46.62319       22.92488
H         96.12074       45.81237       20.18165
H         95.26300       46.83055       21.25814
H         96.78351       47.29384       20.65950
N         93.31700       39.83402       22.33664
C         92.56688       38.73560       22.93925
C         93.03442       37.39149       22.38517
O         93.46539       36.56927       23.18264
C         91.03114       38.94601       22.81641
C         90.53943       39.03977       21.39864
O         89.79745       38.18120       20.95116
O         90.94374       40.04688       20.60193
H         92.80130       40.62807       21.93435
H         92.78796       38.72834       24.03056
H         90.73628       39.87687       23.34531
H         90.52895       38.09228       23.32347
N         93.05982       37.12287       21.04515
C         93.64813       35.90392       20.49928
C         92.67656       35.03745       19.72778
O         93.10642       33.99279       19.25808
H         92.71815       37.83048       20.37921
H         94.07177       35.26633       21.30519
H         94.49182       36.18677       19.83550
N         91.35718       35.35664       19.58109
C         90.40026       34.44655       18.95090
C         90.66727       34.16871       17.47018
O         90.04920       33.25690       16.93930
C         88.94722       34.91494       19.19324
C         88.57051       36.24867       18.59125
N         87.32028       36.72921       18.77956
O         89.37692       36.90155       17.94684
H         91.00685       36.22453       20.00364
H         90.50099       33.47279       19.48079
H         88.79017       34.98632       20.29212
H         88.25083       34.14445       18.79933
H         86.62941       36.19375       19.32527
H         87.03839       37.63613       18.38348
N         91.57072       34.88751       16.74605
C         91.95870       34.56878       15.37994
C         91.60437       35.64518       14.37722
O         92.10438       35.56575       13.26344
H         92.04687       35.67924       17.18639
H         91.51855       33.61310       15.02435
H         93.06306       34.44246       15.38327
N         90.70975       36.63718       14.65431
C         90.33597       37.65991       13.67854
C         90.21457       39.02809       14.32505
O         90.19013       39.11944       15.54524
C         89.01477       37.29704       12.96116
C         87.85240       37.08021       13.90568
C         86.84740       38.05306       14.03328
C         87.75432       35.89347       14.65498
C         85.77392       37.84943       14.90681
C         86.67600       35.68773       15.51900
C         85.68310       36.66814       15.65075
O         84.63949       36.48546       16.48464
H         90.22396       36.62580       15.56127
H         91.13074       37.73918       12.90404
H         89.14174       36.38151       12.34337
H         88.77863       38.11944       12.25083
H         86.90134       38.97547       13.46864
H         88.50578       35.11935       14.56199
H         85.01214       38.61215       15.00607
H         86.61345       34.76595       16.08414
H         84.53823       35.68100       17.01342
N         90.15173       40.15126       13.54879
C         89.98158       41.49138       14.10558
C         88.86678       42.24918       13.40632
O         88.35771       41.80152       12.38668
C         91.31846       42.29336       14.07573
C         91.86155       42.50896       12.63897
C         92.34501       41.58860       14.96874
C         93.13140       43.36634       12.59223
H         90.26190       40.05190       12.52741
H         89.67019       41.40883       15.16892
H         91.13152       43.29048       14.52366
H         91.08847       43.03223       12.03699
H         92.07982       41.53249       12.15661
H         92.60698       40.60279       14.53562
H         93.26436       42.19321       15.08629
H         91.92531       41.44046       15.98443
H         93.97917       42.86670       13.10418
H         93.43400       43.52345       11.53591
H         92.94955       44.35623       13.06242
N         88.44129       43.42991       13.93200
C         87.43313       44.29207       13.32886
C         88.02008       45.67768       13.10716
O         89.18375       45.88697       13.41208
C         86.20920       44.35455       14.25931
O         86.56574       44.89016       15.50480
H         88.85643       43.74176       14.82387
H         87.09555       43.88963       12.34856
H         85.81266       43.32392       14.39643
H         85.41468       44.97910       13.79453
H         85.72101       44.98526       16.01671
N         87.26378       46.68877       12.60009
C         87.74811       48.06241       12.48472
C         88.11007       48.62248       13.85224
O         89.17367       49.20922       13.99082
C         86.67983       48.94945       11.83957
H         86.29366       46.48197       12.31672
H         88.63942       48.09673       11.81774
H         87.06348       49.98738       11.73204
H         86.43630       48.56493       10.82599
H         85.75331       48.96841       12.45136
N         87.27530       48.43857       14.91688
C         87.53928       48.94256       16.26373
C         88.90435       48.51955       16.77121
O         89.68202       49.38311       17.15367
C         86.45569       48.44894       17.23212
H         86.41342       47.89251       14.76190
H         87.49919       50.05444       16.24707
H         85.45568       48.79407       16.89445
H         86.44717       47.33851       17.28332
H         86.63901       48.84976       18.25206
N         89.27432       47.20944       16.77760
C         90.58918       46.75560       17.22671
C         91.68701       47.44150       16.43249
O         92.58530       48.01467       17.03323
C         90.72438       45.22541       17.10003
C         89.74508       44.48047       18.02221
C         89.97215       43.00218       17.95358
O         89.07855       42.25894       17.58532
O         91.15963       42.48765       18.32243
H         88.60072       46.51856       16.41557
H         90.72642       47.00877       18.30237
H         91.75996       44.94219       17.39338
H         90.56390       44.91859       16.04629
H         88.69549       44.70530       17.73753
H         89.89902       44.80255       19.07434
N         91.65042       47.46419       15.07436
C         92.64587       48.14552       14.27853
H         93.63647       47.66685       14.42112
H         92.36946       48.09047       13.20348
H         92.69895       49.21622       14.57141
H         90.86816       47.01590       14.58849
Ca        91.12153       39.54783       18.43669
O         87.43105       39.91820       17.19927
H         87.72017       39.21667       16.56470
H         86.94660       40.57628       16.64106
O         88.03363       40.88484       20.00734
H         87.06191       40.71434       20.08856
H         88.22833       41.56312       20.70175

Ca 1.0



