%chk=holoCaM-CaMKII.loop1.water2.frame238.chk
%nprocshared=20
%mem=10GB
%nosave
#b3lyp/svp scf=(tight,noincore,xqc) Test 
#IOP(5/87=12) Density=Current Pop=(MK,readradii) iop(6/33=2) iop(6/42=6)

holoCaM-CaMKII.loop1.water2.frame238 

   0  1 
C         89.27854       20.98051       41.99324
C         90.37582       21.00519       43.01760
O         91.47140       20.55636       42.72239
H         88.33521       21.40702       42.39706
H         89.58085       21.56936       41.10338
H         89.08158       19.93025       41.69107
N         90.14828       21.52009       44.25479
C         91.14380       21.53113       45.32299
C         91.52613       20.09126       45.70260
O         90.66718       19.34959       46.15709
C         90.55945       22.33850       46.51189
C         91.33436       22.19993       47.78292
O         92.63540       22.51454       47.89092
O         90.78326       21.68652       48.74160
H         89.21414       21.91829       44.44231
H         92.04942       22.06907       44.97306
H         89.53401       21.95916       46.72419
H         90.46515       23.40712       46.22511
N         92.80920       19.63864       45.52449
C         93.27950       18.28626       45.83718
C         94.35535       18.25337       46.92987
O         94.76010       17.15714       47.29238
C         93.82005       17.60310       44.56290
C         92.71329       17.35098       43.53181
C         93.24868       16.55845       42.33034
C         92.14606       16.15778       41.33534
N         91.53269       17.31215       40.67720
H         93.49685       20.27620       45.11787
H         92.44139       17.67273       46.23198
H         94.23957       16.61217       44.84298
H         94.63862       18.21263       44.11672
H         92.29565       18.31609       43.19801
H         91.90737       16.75828       44.01658
H         93.70331       15.61694       42.70950
H         94.03954       17.13932       41.80716
H         91.36481       15.56308       41.85966
H         92.60366       15.50631       40.55833
H         90.83899       16.96814       39.97437
H         91.02670       17.91038       41.36746
H         92.26316       17.87294       40.18172
N         94.80640       19.37941       47.55426
C         95.65839       19.35279       48.75408
C         94.84170       19.71427       49.99477
O         95.38920       19.67843       51.08778
C         96.93788       20.22911       48.60699
C         96.68738       21.68410       48.30387
O         95.42377       22.10270       48.14324
O         97.62211       22.44886       48.13426
H         94.42622       20.27719       47.23938
H         96.01848       18.31814       48.94374
H         97.55345       19.81324       47.78082
H         97.53515       20.15586       49.54323
N         93.50881       20.00024       49.91255
C         92.65115       20.21305       51.06192
C         93.01121       21.43794       51.86289
O         93.16097       21.32835       53.07085
H         93.03584       20.01331       48.99921
H         92.64903       19.30536       51.70299
H         91.61142       20.35338       50.69840
N         93.11221       22.65257       51.25702
C         93.27366       23.91159       51.97331
C         92.09828       24.85639       51.69166
O         92.13671       25.98973       52.14975
C         94.65032       24.54388       51.67490
C         94.92429       24.84529       50.23462
O         96.02371       24.34535       49.64560
O         94.19730       25.59138       49.60850
H         93.03171       22.69709       50.23451
H         93.27189       23.74171       53.07199
H         95.44145       23.85246       52.03974
H         94.74057       25.48860       52.25225
N         90.98131       24.43397       51.02272
C         89.78585       25.24625       50.84980
C         89.87043       26.30325       49.76884
O         88.86167       26.96576       49.56245
H         90.90741       23.45480       50.71769
H         89.49673       25.69760       51.82381
H         88.95684       24.57240       50.54082
N         90.99057       26.51819       49.02050
C         91.04110       27.47846       47.91817
C         91.44782       26.79341       46.62224
O         91.81200       25.62345       46.63830
C         91.98354       28.65963       48.25651
C         91.43631       29.50810       49.41642
O         93.28763       28.21068       48.52765
H         91.83639       25.97105       49.21956
H         90.02994       27.90417       47.73274
H         92.03993       29.34316       47.38282
H         93.31806       27.90778       49.47226
H         91.33909       28.90446       50.34371
H         92.12217       30.35862       49.61516
H         90.43802       29.91614       49.15003
N         91.35567       27.46804       45.44168
C         91.66307       26.89027       44.13736
C         92.72409       27.74418       43.46132
O         92.55039       28.95416       43.37846
C         90.37370       26.79473       43.26293
C         89.28034       25.97929       44.00741
C         90.70365       26.14559       41.90007
C         87.96587       25.83834       43.23479
H         91.00300       28.43894       45.45888
H         92.04076       25.84961       44.24578
H         89.98303       27.82058       43.07876
H         89.03828       26.49392       44.96178
H         89.65934       24.96173       44.24747
H         91.47206       26.73012       41.35918
H         91.07486       25.10707       42.04004
H         89.81844       26.12404       41.23437
H         88.09991       25.23598       42.31338
H         87.22346       25.30697       43.86680
H         87.55987       26.83759       42.97111
N         93.81537       27.16652       42.88713
C         94.83708       27.90966       42.15516
C         94.65987       27.68285       40.66724
O         93.80943       26.90064       40.27638
C         96.26305       27.46850       42.59521
C         96.55648       27.76604       44.06850
O         96.47727       26.10749       42.31568
H         93.87174       26.14049       42.88270
H         94.72233       29.00188       42.32813
H         97.01713       28.03809       42.01247
H         96.06579       25.57242       43.04093
H         96.48523       28.85537       44.26216
H         95.83927       27.22753       44.71983
H         97.58601       27.42466       44.31548
N         95.43241       28.34686       39.76784
C         95.38641       28.08584       38.32891
C         95.82234       26.65358       38.05436
O         95.19984       25.97017       37.25513
C         96.29827       29.06546       37.55169
C         95.81808       30.51590       37.69294
O         97.62642       28.95667       37.99715
H         96.10715       29.03817       40.12942
H         94.35167       28.23603       37.94395
H         96.23618       28.78763       36.47230
H         98.20458       29.29526       37.26468
H         94.77297       30.61095       37.32845
H         95.86058       30.85716       38.74787
H         96.46237       31.18511       37.08522
N         96.86900       26.13310       38.75340
C         97.38885       24.77358       38.62797
C         96.27130       23.74819       38.76458
O         96.10463       22.91173       37.88845
C         98.45904       24.58866       39.73578
C         99.28123       23.29929       39.67105
C        100.26490       23.27802       40.85613
C        101.22676       22.08820       40.79595
N        102.11522       22.08332       41.95994
H         97.30944       26.74787       39.45518
H         97.87104       24.66179       37.63235
H         97.96675       24.65700       40.73008
H         99.18293       25.43093       39.65903
H         99.84178       23.28490       38.71129
H         98.62076       22.40711       39.72178
H         99.68447       23.23788       41.80512
H        100.87189       24.21099       40.85588
H        101.83724       22.16171       39.86829
H        100.65145       21.13745       40.76925
H        102.65858       22.97624       42.00845
H        101.55609       21.96700       42.83655
H        102.78543       21.28521       41.87901
N         95.45533       23.78300       39.84857
C         94.35872       22.85103       40.10136
C         93.29025       22.96524       39.02481
O         92.91174       21.94767       38.46207
C         93.79338       23.09851       41.52065
C         94.89830       22.80630       42.56483
C         94.50403       23.09573       43.97523
O         94.08419       24.19356       44.29422
O         94.74225       22.17996       44.92529
H         95.62757       24.53223       40.53177
H         94.74166       21.80560       40.10111
H         92.92750       22.43101       41.71095
H         93.44310       24.15058       41.60337
H         95.79038       23.42422       42.36894
H         95.21723       21.74396       42.48739
N         92.79681       24.17865       38.65394
C         91.81210       24.37168       37.60796
H         90.94694       24.93506       38.01571
H         92.26397       24.96543       36.78415
H         91.44435       23.41281       37.18776
H         93.16480       25.01892       39.10483
Ca        94.32804       23.79950       47.15814
O         95.85859       26.58960       47.25135
H         94.87035       26.62088       47.20727
H         96.13871       27.53766       47.20157
O         97.18829       24.40898       45.63447
H         97.91341       23.95490       46.13025
H         97.49704       24.40105       44.69470

Ca 1.0



