%chk=holoCaM-CaMKII.loop4.water2.frame168.chk
%nprocshared=20
%mem=10GB
%nosave
#b3lyp/svp scf=(tight,noincore,xqc) Test 
#IOP(5/87=12) Density=Current Pop=(MK,readradii) iop(6/33=2) iop(6/42=6)

holoCaM-CaMKII.loop4.water2.frame168 

   -3  1 
C         93.11531       26.76946        4.62128
C         92.64785       25.42557        5.09374
O         93.46648       24.55843        5.35266
H         94.22236       26.80357        4.54586
H         92.68278       26.97726        3.61893
H         92.77447       27.55175        5.33132
N         91.31559       25.18768        5.21337
C         90.74003       23.91399        5.63322
C         91.16763       22.78928        4.69843
O         90.99990       22.91945        3.49399
C         89.20742       24.05564        5.67414
C         88.52440       22.78067        6.05104
O         87.73130       22.27049        5.27907
O         88.77539       22.19761        7.23540
H         90.67550       25.96402        4.98124
H         91.07517       23.68218        6.66184
H         88.83908       24.38274        4.67767
H         88.93466       24.83293        6.42221
N         91.70452       21.63854        5.20665
C         92.17701       20.52647        4.38690
C         91.23655       19.34277        4.56427
O         90.62453       18.92626        3.59030
C         93.65551       20.16438        4.75853
C         94.57203       21.40549        4.60758
C         94.16310       18.98493        3.90560
C         96.03408       21.16894        4.99878
H         91.76643       21.53504        6.22882
H         92.15391       20.81048        3.31060
H         93.69412       19.85055        5.82515
H         94.19299       22.19632        5.28315
H         94.53674       21.78383        3.56328
H         95.18150       18.67627        4.21801
H         93.51806       18.09244        4.04246
H         94.17994       19.25745        2.82959
H         96.58830       22.12987        4.93822
H         96.10738       20.78424        6.03681
H         96.52889       20.45578        4.30999
N         91.08778       18.73799        5.77710
C         90.24017       17.56150        5.98358
C         88.75910       17.80359        5.68027
O         88.05846       16.82037        5.48220
C         90.41223       16.95866        7.40164
C         90.00204       17.92522        8.47453
O         89.02666       17.69714        9.17225
O         90.67657       19.07789        8.62773
H         91.65734       19.09616        6.55144
H         90.59252       16.79229        5.26074
H         91.47059       16.66850        7.57029
H         89.78984       16.03909        7.47379
N         88.20367       19.05175        5.63456
C         86.82645       19.28993        5.20960
C         85.89340       19.78693        6.29976
O         84.74808       20.06190        5.96886
H         88.78015       19.87002        5.87411
H         86.36340       18.36596        4.80241
H         86.84756       20.02282        4.37483
N         86.25794       19.87761        7.61434
C         85.28924       20.19965        8.67058
C         84.95339       21.68560        8.78199
O         84.23127       22.04905        9.70055
C         85.68479       19.52375       10.00617
C         86.92573       20.00567       10.69409
O         87.41742       19.31286       11.57051
O         87.54312       21.14500       10.35380
H         87.20506       19.57711        7.88652
H         84.33558       19.67699        8.43060
H         85.84152       18.44826        9.76302
H         84.85087       19.57426       10.73816
N         85.36381       22.59272        7.84596
C         84.97239       23.99252        7.86198
C         85.71666       24.83341        8.87475
O         85.42921       26.01869        8.94318
H         85.89810       22.27681        7.03044
H         83.87319       24.06820        8.01715
H         85.19948       24.43755        6.86900
N         86.69253       24.31453        9.67565
C         87.44603       25.11223       10.63788
C         88.93625       25.03245       10.33950
O         89.34487       24.23838        9.50526
C         87.11823       24.62799       12.06412
C         85.61900       24.82885       12.36694
C         85.20043       24.39095       13.74670
N         83.91345       24.55469       14.13292
O         86.00590       23.89196       14.51909
H         86.91834       23.31821        9.61190
H         87.16125       26.18355       10.55840
H         87.71341       25.20744       12.80265
H         87.38033       23.55098       12.16245
H         85.00683       24.25672       11.63678
H         85.37961       25.90891       12.26131
H         83.22411       24.97788       13.49316
H         83.60361       24.26479       15.07201
N         89.80197       25.89599       10.95104
C         91.23663       25.92936       10.67367
C         92.00318       25.78324       11.97863
O         91.88579       26.63461       12.84798
C         91.59683       27.23298        9.90568
C         93.11415       27.39436        9.70913
C         90.91976       27.23043        8.52113
H         89.41981       26.59691       11.60326
H         91.52188       25.08906       10.01359
H         91.23433       28.11184       10.48333
H         93.63357       27.46404       10.68737
H         93.53300       26.54206        9.13596
H         93.32840       28.33315        9.15422
H         89.81628       27.16152        8.61359
H         91.15733       28.16319        7.96733
H         91.27631       26.36607        7.91754
N         92.81266       24.70161       12.17090
C         93.56099       24.45118       13.40332
C         94.92590       25.13785       13.31599
O         95.27819       25.61446       12.24535
C         93.68376       22.90217       13.54651
C         94.11764       22.33034       14.88351
N         93.29289       21.50397       15.56928
O         95.22582       22.55781       15.33554
H         92.86012       23.99359       11.42213
H         92.97101       24.84214       14.26131
H         94.35217       22.51472       12.74681
H         92.67427       22.48656       13.34242
H         92.35966       21.25965       15.20818
H         93.59710       21.09015       16.46303
N         95.77014       25.19657       14.38879
C         97.16102       25.65151       14.28091
C         97.94370       24.74955       13.32827
O         98.96609       25.17346       12.80688
C         97.83435       25.60551       15.67068
C         99.28487       26.03543       15.66788
C         99.64389       27.35924       15.36560
C        100.29387       25.10725       15.98273
C        100.98859       27.74827       15.38704
C        101.63581       25.49632       15.99705
C        101.98782       26.82065       15.70331
O        103.27827       27.21186       15.72456
H         95.42436       24.87532       15.30234
H         97.15805       26.69318       13.88852
H         97.76107       24.55706       16.03791
H         97.27450       26.24732       16.38393
H         98.88390       28.09133       15.12443
H        100.04441       24.07917       16.21452
H        101.25464       28.77326       15.16152
H        102.39987       24.76814       16.24000
H        103.99721       26.60249       15.94646
N         97.52738       23.47459       13.08570
C         98.16631       22.56091       12.15572
C         98.02708       23.13476       10.75840
O         99.01754       23.34413       10.07337
C         97.45842       21.17564       12.25527
C         98.14510       20.04287       11.48081
C         99.44663       19.59905       12.10074
O         99.91227       20.15799       13.23622
O        100.06988       18.68285       11.59069
H         96.70427       23.12746       13.58427
H         99.23319       22.44511       12.44025
H         96.41437       21.26900       11.88765
H         97.38496       20.85966       13.31974
H         98.29913       20.34632       10.42386
H         97.46704       19.16136       11.49218
N         96.78038       23.42952       10.29616
C         96.48332       23.97858        8.97814
C         96.91166       25.43603        8.83681
O         96.78861       25.96832        7.74183
C         94.96514       23.83718        8.72340
C         94.57343       22.34495        8.67998
C         93.09797       22.10545        8.64642
O         92.68497       20.96044        8.59254
O         92.22198       23.12081        8.71993
H         95.98720       23.23028       10.92382
H         97.01786       23.37953        8.20744
H         94.67314       24.30753        7.75963
H         94.42349       24.35750        9.54355
H         94.94771       21.80584        9.57350
H         95.03714       21.88852        7.78333
N         97.41532       26.15325        9.88130
C         97.84448       27.52770        9.74472
H         98.67575       27.59280        9.01103
H         96.99737       28.16258        9.40999
H         98.20847       27.90767       10.72406
H         97.49806       25.72887       10.81025
Ca        89.53842       20.76334        9.49711
O         91.91836       20.04940       11.43822
H         92.35881       19.77386       12.28027
H         91.60558       19.20044       11.03723
O         89.78437       22.19839       12.35219
H         90.20524       22.42614       13.21828
H         89.22952       21.40278       12.55061

Ca 1.0



