%chk=holoCaM.loop1.water2.frame256.chk
%nprocshared=20
%mem=10GB
%nosave
#b3lyp/svp scf=(tight,noincore,xqc) Test 
#IOP(5/87=12) Density=Current Pop=(MK,readradii) iop(6/33=2) iop(6/42=6)

holoCaM.loop1.water2.frame256 

   0  1 
C         61.29241        4.62274       61.54238
C         62.05369        4.30293       60.29691
O         63.05272        3.60167       60.38204
H         60.25815        4.23126       61.45234
H         61.77836        4.15138       62.42408
H         61.26612        5.72157       61.68957
N         61.63110        4.78242       59.09125
C         62.31746        4.47929       57.84732
C         62.81816        5.77433       57.20071
O         62.02201        6.64393       56.87591
C         61.37937        3.67708       56.92232
C         62.12159        3.06597       55.77041
O         63.46184        3.16034       55.71001
O         61.51295        2.47405       54.89582
H         60.78306        5.36918       59.05433
H         63.18606        3.82064       58.06548
H         60.57040        4.34399       56.55054
H         60.91340        2.83894       57.48407
N         64.15493        5.95832       57.01681
C         64.79392        7.16632       56.49081
C         64.33073        7.53477       55.08851
O         63.89695        8.66417       54.90642
C         66.32894        6.96606       56.50973
C         67.14089        8.19014       56.06267
C         68.64301        7.88409       56.16559
C         69.49753        9.06892       55.70151
N         70.92280        8.75973       55.82243
H         64.76759        5.19606       57.32921
H         64.56049        8.01282       57.17569
H         66.59662        6.11828       55.84695
H         66.62972        6.71036       57.55050
H         66.89358        9.05963       56.70967
H         66.89083        8.44095       55.00881
H         68.88385        6.99933       55.53525
H         68.89519        7.64537       57.22254
H         69.26284        9.96297       56.32044
H         69.26136        9.30200       54.63936
H         71.16468        8.56270       56.82099
H         71.16406        7.93006       55.23265
H         71.48160        9.58064       55.49559
N         64.41305        6.65490       54.04729
C         64.08668        7.02373       52.66606
C         62.70708        6.53592       52.24632
O         62.29892        6.83315       51.13207
C         65.23272        6.57695       51.71855
C         65.40214        5.08324       51.58876
O         64.41342        4.25645       51.95847
O         66.41184        4.62231       51.08259
H         64.71474        5.68973       54.24441
H         64.03365        8.13195       52.58518
H         66.17282        7.00069       52.13472
H         65.09736        6.99566       50.69818
N         61.90626        5.83625       53.10215
C         60.54162        5.45495       52.78933
C         60.46043        4.49735       51.63004
O         59.76593        4.78884       50.66681
H         62.24487        5.59535       54.04414
H         59.93897        6.36757       52.58548
H         60.10003        4.95011       53.67629
N         61.12792        3.31237       51.67639
C         61.02832        2.28342       50.64779
C         60.45450        0.98149       51.21873
O         60.46701       -0.02166       50.51908
C         62.38903        2.11097       49.93408
C         63.52106        1.57647       50.76304
O         63.34533        1.22244       52.04564
O         64.62372        1.45390       50.25549
H         61.72531        3.12406       52.49292
H         60.33133        2.60277       49.84192
H         62.69072        3.10566       49.53580
H         62.25604        1.42745       49.06809
N         59.84670        0.94671       52.44667
C         59.17368       -0.22927       52.98539
C         60.09320       -1.27828       53.58375
O         59.57880       -2.28301       54.05355
H         59.74415        1.81762       52.98564
H         58.52284       -0.67362       52.20110
H         58.51149        0.09844       53.81581
N         61.44378       -1.11859       53.63171
C         62.36611       -2.08636       54.21918
C         63.19059       -1.43254       55.32103
O         63.68621       -0.32887       55.13637
C         63.27831       -2.69088       53.12238
C         62.48719       -3.64072       52.21944
O         63.85754       -1.69542       52.32255
H         61.85449       -0.26984       53.22807
H         61.82784       -2.94545       54.67789
H         64.07509       -3.31122       53.59574
H         64.48831       -1.19997       52.89867
H         61.66510       -3.10576       51.69987
H         63.16218       -4.08816       51.45926
H         62.05488       -4.46861       52.82324
N         63.43925       -2.11626       56.47659
C         64.26752       -1.61186       57.56688
C         65.59796       -2.34889       57.54181
O         65.62764       -3.56716       57.64805
C         63.52125       -1.76420       58.92997
C         62.28296       -0.82864       58.94870
C         64.45222       -1.46633       60.12350
C         61.43905       -0.92815       60.22242
H         63.07849       -3.07899       56.56539
H         64.48550       -0.53004       57.42548
H         63.19005       -2.82159       59.03525
H         61.62365       -1.08362       58.09189
H         62.61130        0.22833       58.82995
H         65.32746       -2.14611       60.12265
H         64.80247       -0.41789       60.09929
H         63.94049       -1.65398       61.08756
H         62.00706       -0.59668       61.11563
H         60.55819       -0.25845       60.13220
H         61.08496       -1.96938       60.37212
N         66.75147       -1.63210       57.42364
C         68.09154       -2.20146       57.44653
C         68.60932       -2.22851       58.87539
O         67.89396       -1.83837       59.78728
C         69.04584       -1.34027       56.56067
C         68.58285       -1.26600       55.09699
O         69.21883       -0.05476       57.11571
H         66.68187       -0.60916       57.40171
H         68.07782       -3.23840       57.04438
H         70.05018       -1.80996       56.52923
H         68.61950        0.58498       56.65490
H         67.58246       -0.79108       55.03304
H         69.30106       -0.65346       54.50899
H         68.53282       -2.28127       54.65365
N         69.87812       -2.64110       59.13732
C         70.50996       -2.50107       60.44677
C         70.56976       -1.03046       60.84279
O         70.23840       -0.70444       61.97234
C         71.93989       -3.09714       60.44188
C         71.90691       -4.61913       60.25214
O         72.71595       -2.50117       59.43292
H         70.44025       -3.00859       58.35571
H         69.92798       -3.05545       61.21798
H         72.39538       -2.88794       61.43843
H         73.66313       -2.72901       59.62286
H         72.93910       -5.02573       60.29473
H         71.31536       -5.08996       61.06640
H         71.45869       -4.89700       59.27611
N         70.98642       -0.08874       59.94858
C         71.10426        1.33813       60.26175
C         69.76314        2.01113       60.56160
O         69.78554        3.16770       60.96218
C         71.77714        2.07765       59.08199
C         73.20853        1.56211       58.82452
C         73.87568        2.17285       57.58337
C         73.15378        1.79091       56.27738
N         73.91174        2.23476       55.10918
H         71.24689       -0.41328       59.00641
H         71.75122        1.44266       61.16091
H         71.83864        3.16890       59.29050
H         71.13326        1.92991       58.19028
H         73.22306        0.46155       58.69123
H         73.82849        1.79648       59.71730
H         74.91028        1.76742       57.54024
H         73.93868        3.27842       57.67894
H         72.14403        2.25246       56.24654
H         73.03579        0.68517       56.22719
H         74.04027        3.27201       55.13287
H         74.84438        1.76125       55.08939
H         73.38605        1.97474       54.24330
N         68.56622        1.37989       60.38032
C         67.26825        1.99714       60.64630
C         66.51095        1.25799       61.74887
O         65.44732        1.72449       62.13193
C         66.43645        2.01585       59.34300
C         67.16771        2.74946       58.20549
C         66.45026        2.63031       56.88913
O         66.17339        1.53804       56.42476
O         66.18121        3.72717       56.16886
H         68.55953        0.42923       60.00125
H         67.40195        3.04368       60.99717
H         65.44597        2.49019       59.51720
H         66.26891        0.96492       59.03347
H         68.16879        2.30104       58.06692
H         67.30672        3.82008       58.47052
N         66.98650        0.10992       62.31597
C         66.29842       -0.57819       63.38586
H         65.27982       -0.87470       63.06275
H         66.86197       -1.49569       63.66527
H         66.23496        0.07948       64.27786
H         67.86208       -0.30928       61.99213
Ca        64.54582        3.00003       53.78450
O         67.91251        2.47239       53.64839
H         68.21586        2.05436       52.80371
H         67.64859        3.39006       53.38773
O         66.70787       -0.09616       52.74466
H         66.96429       -0.97406       52.36583
H         66.20625        0.35305       52.02086

Ca 1.0



