%chk=holoCaM.loop1.water2.frame430.chk
%nprocshared=20
%mem=10GB
%nosave
#b3lyp/svp scf=(tight,noincore,xqc) Test 
#IOP(5/87=12) Density=Current Pop=(MK,readradii) iop(6/33=2) iop(6/42=6)

holoCaM.loop1.water2.frame430 

   0  1 
C         78.42885       14.32651       52.05654
C         77.57351       15.54830       52.14022
O         76.43525       15.44988       52.57915
H         79.33335       14.47093       52.68371
H         77.87379       13.43811       52.42677
H         78.72874       14.15522       51.00272
N         78.06943       16.75699       51.75438
C         77.28529       17.97146       51.87776
C         76.06837       17.90341       50.95592
O         76.22418       17.79598       49.74732
C         78.13517       19.21657       51.58231
C         77.38323       20.45213       51.95541
O         77.84248       21.54642       51.69322
O         76.20305       20.35241       52.59231
H         79.04190       16.81224       51.41381
H         76.97162       18.03665       52.94496
H         78.39399       19.24013       50.50126
H         79.07465       19.20410       52.17573
N         74.82193       17.88243       51.49599
C         73.61463       17.56187       50.74229
C         73.13276       18.69751       49.84180
O         72.73218       18.40728       48.72318
C         72.52956       17.08107       51.72965
C         71.45007       16.18961       51.10286
C         70.56394       15.61321       52.21940
C         69.58185       14.56096       51.69689
N         68.78072       14.01846       52.79515
H         74.75782       17.93332       52.52242
H         73.84885       16.66684       50.12201
H         72.06940       17.93118       52.26746
H         73.04392       16.42806       52.47178
H         71.95303       15.34247       50.58469
H         70.84241       16.75275       50.36280
H         70.01150       16.44050       52.71548
H         71.21005       15.11600       52.97800
H         70.15293       13.73140       51.22148
H         68.91226       15.01294       50.93362
H         68.21410       14.77940       53.23528
H         68.13606       13.28479       52.42293
H         69.40250       13.58418       53.51655
N         73.14900       20.00793       50.25015
C         72.65063       21.11708       49.42638
C         73.76102       22.00123       48.86536
O         73.45048       22.92744       48.12818
C         71.55177       21.90428       50.18369
C         71.94244       22.83078       51.31809
O         71.05101       23.34930       51.96820
O         73.20030       23.24909       51.54161
H         73.53816       20.22663       51.17465
H         72.14228       20.69656       48.52971
H         70.82331       21.15817       50.56844
H         71.00373       22.54559       49.45786
N         75.07817       21.73203       49.09959
C         76.16990       22.44880       48.46145
C         76.27779       23.89237       48.88630
O         76.23897       24.76115       48.02620
H         75.33794       20.93277       49.69341
H         76.05881       22.37664       47.35585
H         77.12789       21.95501       48.73187
N         76.46833       24.21704       50.19742
C         76.69935       25.58421       50.66389
C         78.05349       25.75103       51.36373
O         78.37669       26.87461       51.72254
C         75.52681       26.04950       51.55303
C         75.35230       25.30619       52.85072
O         76.11826       24.41916       53.18620
O         74.33094       25.63725       53.66209
H         76.45555       23.45512       50.88713
H         76.71903       26.27487       49.79250
H         74.58882       25.94839       50.96510
H         75.66254       27.12516       51.79594
N         78.90401       24.70082       51.57279
C         80.23554       24.83084       52.14530
C         80.43807       24.02184       53.41224
O         81.58960       23.76439       53.73600
H         78.63801       23.75976       51.26966
H         80.51777       25.88466       52.35421
H         80.94871       24.45296       51.38074
N         79.40259       23.66211       54.22873
C         79.59559       22.93594       55.48700
C         78.70667       21.70715       55.58056
O         77.85242       21.49034       54.73420
C         79.33330       23.86599       56.70319
C         80.40033       24.95988       56.83878
O         78.03948       24.41655       56.65972
H         78.44993       23.96144       53.98191
H         80.64248       22.56681       55.56276
H         79.41013       23.27658       57.64144
H         78.03712       25.14692       55.98710
H         80.19434       25.57127       57.74316
H         81.40228       24.49300       56.95743
H         80.41421       25.62264       55.94953
N         78.87894       20.85276       56.62742
C         78.08006       19.66401       56.88939
C         77.41838       19.85206       58.24715
O         78.10477       20.12519       59.22293
C         78.98948       18.39990       56.82213
C         79.50181       18.22635       55.36426
C         78.23205       17.13815       57.28545
C         80.49975       17.08471       55.17065
H         79.63702       21.05406       57.29855
H         77.28292       19.53385       56.12303
H         79.85387       18.54730       57.50718
H         80.01353       19.15647       55.03842
H         78.63704       18.05708       54.68681
H         78.89681       16.25157       57.29442
H         77.86641       17.25544       58.32636
H         77.36969       16.93112       56.62106
H         80.04775       16.09921       55.39973
H         80.82133       17.06112       54.10729
H         81.39322       17.24552       55.80924
N         76.07245       19.69737       58.37245
C         75.32379       19.88998       59.60966
C         74.89899       18.53739       60.15858
O         75.34261       17.52299       59.64092
C         74.11939       20.83838       59.34806
C         74.57882       22.23667       58.90077
O         73.21368       20.26943       58.43108
H         75.54326       19.38344       57.55021
H         75.95814       20.35643       60.39512
H         73.56210       21.00574       60.29169
H         73.49704       20.51039       57.51251
H         75.22013       22.69637       59.68228
H         75.15832       22.17829       57.95747
H         73.69609       22.89194       58.73889
N         74.08206       18.44361       61.24507
C         73.68620       17.16962       61.84246
C         72.93805       16.28501       60.85146
O         73.35474       15.15061       60.66767
C         72.85785       17.37732       63.13455
C         73.67215       18.08173       64.22713
O         71.69439       18.12231       62.87410
H         73.74314       19.31440       61.67622
H         74.60697       16.62323       62.15198
H         72.60082       16.36934       63.54356
H         70.92108       17.50427       62.94902
H         73.97120       19.10522       63.92066
H         73.06679       18.16198       65.15416
H         74.58981       17.49913       64.45841
N         71.83205       16.71911       60.17621
C         71.10700       15.86512       59.22911
C         71.91872       15.48751       57.98614
O         71.40794       14.69546       57.20500
C         69.79012       16.52976       58.76507
C         68.75903       16.65784       59.89612
C         67.43793       17.22457       59.35684
C         66.35319       17.24463       60.44107
N         65.09453       17.76758       59.90935
H         71.48736       17.67343       60.35729
H         70.84177       14.91634       59.74807
H         69.32260       15.88451       57.98775
H         70.00427       17.52102       58.30737
H         69.14437       17.30904       60.70943
H         68.56735       15.64373       60.31194
H         67.08018       16.58667       58.51827
H         67.60680       18.25449       58.97294
H         66.68532       17.87600       61.29429
H         66.18675       16.20855       60.81306
H         65.22381       18.75280       59.58325
H         64.76439       17.17385       59.11357
H         64.37042       17.75151       60.66336
N         73.16484       15.98346       57.72525
C         73.93595       15.62675       56.53479
C         75.18197       14.81476       56.88324
O         75.83598       14.34495       55.96234
C         74.35588       16.90255       55.76905
C         73.18889       17.86680       55.50356
C         73.65344       19.11532       54.79883
O         74.63826       19.87025       55.31717
O         73.12032       19.47282       53.76418
H         73.58219       16.65203       58.37497
H         73.31682       14.99337       55.86285
H         74.84140       16.61459       54.81027
H         75.10122       17.44319       56.38695
H         72.75133       18.17937       56.47456
H         72.39955       17.35761       54.90890
N         75.58311       14.61436       58.17416
C         76.75237       13.84528       58.54888
H         77.47341       14.50610       59.07521
H         76.44696       13.03303       59.24223
H         77.26123       13.38906       57.67529
H         75.06009       15.03250       58.94861
Ca        74.73433       21.98370       52.50864
O         72.29363       22.29457       55.29447
H         72.23464       23.14463       54.79000
H         72.39549       22.57326       56.23929
O         74.99239       23.55611       55.75895
H         75.16155       24.46819       56.10475
H         75.88942       23.14446       55.68952

Ca 1.0



