%chk=holoCaM-CaMKII.loop2.water1.frame291.chk
%nprocshared=20
%mem=10GB
%nosave
#b3lyp/svp scf=(tight,noincore,xqc) Test 
#IOP(5/87=12) Density=Current Pop=(MK,readradii) iop(6/33=2) iop(6/42=6)

holoCaM-CaMKII.loop2.water1.frame291 

   -2  1 
C         45.19431       23.87780       64.42648
C         46.34563       23.32742       63.63328
O         47.04084       24.08395       62.97483
H         44.24562       23.40653       64.09489
H         45.34954       23.65295       65.50405
H         45.11335       24.97896       64.30613
N         46.61176       21.99527       63.67349
C         47.75528       21.36726       63.01721
C         47.73222       21.53009       61.50215
O         46.75622       21.15536       60.86793
C         47.80048       19.87638       63.39249
C         48.96418       19.17716       62.75650
O         50.21866       19.62274       62.95927
O         48.77157       18.21043       62.03789
H         45.98688       21.40521       64.24587
H         48.68218       21.82574       63.42146
H         46.85473       19.37905       63.08320
H         47.89866       19.78967       64.49617
N         48.82674       22.04351       60.86507
C         48.94669       22.21390       59.42206
C         50.13219       21.44965       58.82015
O         50.25613       21.47503       57.60320
C         49.11819       23.70926       59.12502
H         49.62303       22.33175       61.44052
H         48.02262       21.85673       58.91895
H         48.25634       24.28139       59.52860
H         50.04785       24.09259       59.60201
H         49.18226       23.89381       58.03163
N         51.06898       20.80373       59.58271
C         52.26634       20.16515       59.02253
C         52.45665       18.71235       59.46802
O         53.41366       18.09175       59.02474
C         53.49993       21.01413       59.39408
C         53.64361       21.21091       60.87729
O         53.61645       22.33381       61.35485
O         53.78959       20.15003       61.68596
H         50.98823       20.83172       60.60713
H         52.21481       20.14563       57.91201
H         53.39766       22.01018       58.91054
H         54.42314       20.53968       58.99647
N         51.60429       18.10209       60.33507
C         51.74836       16.72851       60.78607
C         53.01756       16.48370       61.57454
O         53.75553       15.57757       61.21328
H         50.79185       18.61737       60.68323
H         51.69800       16.04075       59.91224
H         50.89441       16.48281       61.45321
N         53.31854       17.22338       62.68492
C         54.45631       16.92298       63.55909
C         54.02730       16.66619       65.01108
O         54.89505       16.42916       65.84050
C         55.55064       18.01141       63.48130
C         55.23598       19.35024       64.09281
N         56.23557       20.24700       64.24817
O         54.10904       19.62648       64.47075
H         52.70207       18.01305       62.92831
H         54.96128       15.99593       63.20943
H         55.87253       18.15815       62.42697
H         56.42591       17.61645       64.04149
H         57.19321       20.02777       63.93991
H         56.07112       21.14594       64.71162
N         52.71430       16.66206       65.38956
C         52.25352       16.36772       66.74149
C         52.47376       17.46388       67.77926
O         52.02486       17.26498       68.89894
H         51.98287       16.78470       64.67686
H         52.70417       15.41136       67.08639
H         51.15326       16.21556       66.69456
N         53.12554       18.63282       67.50864
C         53.31528       19.71080       68.48293
C         52.78165       21.02623       67.93797
O         53.17709       21.41646       66.85040
C         54.81149       19.88505       68.82581
C         55.39136       18.63353       69.48114
O         55.56400       20.18981       67.67767
H         53.52634       18.76746       66.57800
H         52.79576       19.48085       69.43983
H         54.90359       20.70556       69.57995
H         55.64514       21.17904       67.63349
H         55.35365       17.77178       68.78228
H         56.44945       18.81941       69.76188
H         54.82157       18.38224       70.40141
N         51.92129       21.79439       68.66624
C         51.44362       23.10298       68.21021
C         52.63384       24.04718       68.02507
O         53.29803       24.37234       68.99970
C         50.40006       23.68829       69.22269
C         49.13513       22.78501       69.26785
C         50.00901       25.13793       68.86824
C         48.13732       23.16727       70.36440
H         51.62283       21.44314       69.58848
H         50.92991       22.97199       67.23135
H         50.87289       23.70604       70.23067
H         49.42415       21.73420       69.47022
H         48.62300       22.80849       68.28073
H         49.31531       25.56580       69.61810
H         50.89637       25.79926       68.88261
H         49.53421       25.18473       67.86746
H         47.28905       22.45069       70.35246
H         48.62677       23.11687       71.36033
H         47.71597       24.17998       70.21045
N         52.95514       24.51868       66.78317
C         54.02348       25.48289       66.53105
C         53.54917       26.88958       66.90219
O         52.39642       27.05263       67.26951
C         54.47077       25.44529       65.04359
C         55.24846       24.20227       64.66347
O         54.68051       22.98800       64.50505
O         56.44519       24.30683       64.44399
H         52.38613       24.21726       65.98686
H         54.91154       25.23043       67.15236
H         55.18006       26.28644       64.89657
H         53.61800       25.60660       64.34843
N         54.39616       27.96337       66.83001
C         53.97394       29.32263       67.16893
C         52.84413       29.80521       66.26618
O         51.88332       30.32690       66.81738
C         55.14304       30.33531       67.14044
C         54.68302       31.68967       67.63967
C         54.32930       31.86505       68.99016
C         54.58439       32.78202       66.75967
C         53.88931       33.10962       69.45052
C         54.13342       34.02280       67.22302
C         53.78866       34.18697       68.56728
H         55.37420       27.80984       66.54646
H         53.61074       29.30580       68.22102
H         55.54402       30.43283       66.11799
H         55.98052       29.98628       67.78143
H         54.39907       31.04001       69.68790
H         54.83867       32.67043       65.71311
H         53.62369       33.23792       70.49211
H         54.04821       34.85741       66.53920
H         53.44210       35.14830       68.92454
N         52.85201       29.70073       64.89750
C         51.73799       30.10614       64.05061
C         50.42064       29.48844       64.49416
O         49.43776       30.19560       64.65123
C         52.11856       29.56779       62.65737
C         53.62350       29.64407       62.69401
C         53.91839       29.12515       64.09582
H         51.68206       31.21780       64.03720
H         51.88389       28.48198       62.57512
H         51.62680       30.08548       61.80695
H         54.14833       29.09550       61.88215
H         53.90960       30.71941       62.64764
H         53.83454       28.02256       64.14069
H         54.93623       29.45013       64.36386
N         50.35215       28.14318       64.69716
C         49.12210       27.41784       65.01715
C         48.61904       27.70497       66.42520
O         47.50254       27.31132       66.73323
C         49.37948       25.90559       64.86034
C         49.79909       25.56894       63.41301
C         50.43641       24.22751       63.29628
O         51.07249       23.96967       62.28749
O         50.51210       23.39667       64.34775
H         51.22510       27.60926       64.57599
H         48.33985       27.71780       64.28515
H         48.48841       25.29960       65.13527
H         50.20623       25.64578       65.56100
H         50.59358       26.26041       63.07738
H         48.95763       25.68816       62.70222
N         49.39189       28.35209       67.34124
C         48.97007       28.67163       68.68788
H         47.92687       28.35578       68.89175
H         49.64560       28.17075       69.41263
H         49.04451       29.76949       68.83831
H         50.34484       28.61915       67.09147
Ca        52.51331       22.44864       64.36004
O         50.99920       19.56880       65.62424
H         50.71293       18.67140       65.32160
H         50.17326       19.98304       65.97712

Ca 1.0



