%chk=holoCaM-CaMKII.loop2.water2.frame173.chk
%nprocshared=20
%mem=10GB
%nosave
#b3lyp/svp scf=(tight,noincore,xqc) Test 
#IOP(5/87=12) Density=Current Pop=(MK,readradii) iop(6/33=2) iop(6/42=6)

holoCaM-CaMKII.loop2.water2.frame173 

   -2  1 
C         23.19799       58.52573        5.80470
C         23.13374       59.90231        5.21261
O         22.39330       60.09350        4.25824
H         23.89807       58.48479        6.66494
H         22.18715       58.22980        6.15936
H         23.53580       57.80464        5.03211
N         23.86465       60.92642        5.74071
C         23.76568       62.28928        5.23348
C         24.27442       62.36293        3.80460
O         25.40909       61.98118        3.55340
C         24.49163       63.28493        6.16028
C         24.05036       64.71215        5.92715
O         24.34661       65.56197        6.74436
O         23.21788       65.02401        4.91110
H         24.46083       60.73811        6.56165
H         22.69348       62.55655        5.28370
H         25.59698       63.17504        6.11087
H         24.16996       63.04820        7.19906
N         23.45657       62.80724        2.80985
C         23.78741       62.71964        1.39593
C         24.51902       63.94207        0.87118
O         25.05655       63.85061       -0.22374
C         22.50832       62.47126        0.58833
H         22.51359       63.10592        3.06412
H         24.44827       61.83657        1.25017
H         21.80847       63.32836        0.70217
H         22.73785       62.33396       -0.48821
H         22.00144       61.55513        0.96244
N         24.57641       65.11652        1.56688
C         25.36045       66.26900        1.12106
C         26.39512       66.68825        2.16566
O         27.15167       67.61046        1.89246
C         24.44958       67.44392        0.70792
C         23.66461       68.04383        1.83817
O         22.73897       67.31671        2.48812
O         23.84052       69.21129        2.14746
H         24.04672       65.19871        2.44422
H         25.93117       66.00241        0.20450
H         23.74433       67.10462       -0.08189
H         25.09039       68.23606        0.25893
N         26.51945       66.04206        3.36384
C         27.54767       66.35262        4.33907
C         27.40905       67.73043        4.93986
O         28.34585       68.50858        4.83096
H         25.90738       65.24871        3.59441
H         28.54563       66.23556        3.86152
H         27.48666       65.62024        5.17317
N         26.28759       68.08119        5.63636
C         26.15022       69.35770        6.34094
C         25.97991       69.18219        7.85335
O         25.98108       70.18835        8.54985
C         25.00712       70.19607        5.73304
C         23.62613       69.66121        6.02578
N         22.71477       70.43176        6.66542
O         23.31946       68.53528        5.67061
H         25.51671       67.40486        5.67504
H         27.08031       69.94885        6.19813
H         25.15087       70.25510        4.63255
H         25.08124       71.23058        6.13263
H         22.94442       71.39036        6.96524
H         21.76686       70.07693        6.85012
N         25.82889       67.95354        8.43500
C         25.73745       67.73044        9.86945
C         24.39583       67.17771       10.32105
O         24.30467       66.80351       11.48010
H         25.80630       67.11081        7.85243
H         25.92480       68.65984       10.44932
H         26.53521       67.00575       10.14102
N         23.29307       67.17255        9.51135
C         21.96259       66.76118        9.97518
C         21.31753       65.74601        9.03131
O         21.90785       65.37239        8.03281
C         21.06991       68.02423       10.14627
C         21.55310       68.87971       11.31957
O         21.06930       68.81639        8.99068
H         23.36742       67.56399        8.56170
H         22.01978       66.25936       10.96569
H         20.02504       67.74198       10.39626
H         20.83929       68.22211        8.23552
H         20.88316       69.75678       11.44522
H         21.52573       68.28688       12.25961
H         22.58672       69.24617       11.15099
N         20.07497       65.25528        9.32183
C         19.36103       64.25924        8.52861
C         18.08222       64.87848        7.96947
O         17.31007       65.46148        8.71516
C         19.06536       63.00972        9.41703
C         20.40280       62.32539        9.80990
C         18.14105       62.01143        8.69577
C         20.23991       61.11951       10.73888
H         19.60067       65.58915       10.17226
H         19.97481       63.90948        7.67203
H         18.53526       63.34325       10.33657
H         21.04656       63.06061       10.33696
H         20.93834       61.99301        8.89217
H         18.61945       61.63208        7.77169
H         17.88191       61.15645        9.34797
H         17.17328       62.48718        8.45076
H         21.24202       60.72244       11.00391
H         19.71441       61.41900       11.66952
H         19.68495       60.29460       10.24768
N         17.77024       64.69202        6.65288
C         16.53416       65.13417        6.01019
C         15.62205       63.91659        5.88063
O         16.02906       62.84729        6.29750
C         16.84291       65.71446        4.60132
C         18.01050       66.67098        4.56583
O         17.90117       67.79482        4.10270
O         19.20775       66.19711        4.96647
H         18.39246       64.10364        6.09153
H         16.03320       65.90407        6.63534
H         15.92936       66.17985        4.17139
H         17.13933       64.87322        3.93556
N         14.37296       63.97771        5.33882
C         13.53565       62.77952        5.23557
C         14.13588       61.71206        4.30505
O         14.25769       60.58264        4.76248
C         12.08965       63.11047        4.82284
C         11.19140       61.90408        5.02261
C         10.57107       61.27737        3.92964
C         10.96997       61.39243        6.31834
C          9.75174       60.15934        4.12911
C         10.14951       60.27823        6.51214
C          9.54114       59.66113        5.41821
H         14.00304       64.88888        5.03072
H         13.46629       62.35729        6.26284
H         12.07137       63.46259        3.77295
H         11.69342       63.93056        5.45945
H         10.72721       61.64692        2.92466
H         11.42839       61.85600        7.18303
H          9.27953       59.67685        3.28374
H          9.98566       59.89379        7.51143
H          8.90639       58.79744        5.57073
N         14.56535       61.95948        3.01802
C         15.14430       60.94611        2.12644
C         16.50020       60.40504        2.57572
O         17.06430       59.58778        1.86206
C         15.25398       61.67185        0.77905
C         15.50305       63.09820        1.20864
C         14.51140       63.24935        2.35449
H         14.46386       60.07490        2.00512
H         15.99092       61.24860        0.06195
H         14.25299       61.66123        0.29202
H         16.53441       63.15430        1.62707
H         15.40071       63.86417        0.41138
H         14.85162       64.10083        2.96716
H         13.47930       63.41297        1.97616
N         17.05708       60.76797        3.75833
C         18.30360       60.24401        4.28652
C         17.96705       59.28855        5.41879
O         18.42921       58.15690        5.38728
C         19.17759       61.42587        4.73087
C         19.46244       62.36102        3.53959
C         20.20911       63.59457        3.92682
O         20.44659       64.44129        3.07949
O         20.62495       63.78430        5.19181
H         16.57526       61.44565        4.35037
H         18.87036       59.67132        3.51814
H         20.13041       61.06146        5.17016
H         18.63150       61.98872        5.51028
H         18.50521       62.70321        3.09585
H         20.04263       61.81473        2.76495
N         17.08822       59.64463        6.39968
C         16.61075       58.74427        7.42757
H         15.51269       58.61467        7.30712
H         17.08722       57.74480        7.37164
H         16.80418       59.18239        8.42666
H         16.67982       60.58313        6.39721
Ca        21.46258       66.48153        4.99509
O         19.44939       68.71948        6.30527
H         19.08786       69.63077        6.43165
H         18.89696       68.14366        6.89214
O         20.98077       69.37786        4.00311
H         21.76623       69.82459        3.60113
H         20.40763       69.13555        3.23391

Ca 1.0



