%chk=holoCaM.loop4.water3.frame118.chk
%nprocshared=20
%mem=10GB
%nosave
#b3lyp/svp scf=(tight,noincore,xqc) Test 
#IOP(5/87=12) Density=Current Pop=(MK,readradii) iop(6/33=2) iop(6/42=6)

holoCaM.loop4.water3.frame118 

   -3  1 
C        -19.12042       20.68075       10.60467
C        -18.93501       19.26781       11.07528
O        -17.80185       18.85504       11.27334
H        -19.71535       21.23841       11.36086
H        -18.13966       21.19324       10.49562
H        -19.65330       20.69971        9.63351
N        -20.02386       18.48698       11.33344
C        -19.93992       17.17917       11.97417
C        -20.70717       16.10976       11.19832
O        -21.87568       16.32382       10.90696
C        -20.53880       17.32151       13.38562
C        -20.30076       16.12772       14.26466
O        -19.61639       15.19242       13.88656
O        -20.81414       16.11308       15.50748
H        -20.96102       18.88756       11.17138
H        -18.88122       16.88049       12.09979
H        -21.63006       17.51386       13.30566
H        -20.07346       18.19136       13.89629
N        -20.13265       14.90368       10.89955
C        -20.83941       13.80545       10.23079
C        -20.99946       12.57892       11.14085
O        -21.82353       11.73950       10.80347
C        -20.08586       13.43913        8.90828
C        -20.04554       14.62726        7.90935
C        -20.61313       12.17127        8.20322
C        -21.39095       15.01324        7.29394
H        -19.15505       14.74830       11.17618
H        -21.87628       14.11882        9.98931
H        -19.03193       13.21410        9.19047
H        -19.35476       14.36367        7.07746
H        -19.64408       15.52892        8.41232
H        -21.68899       12.26508        7.95048
H        -20.03357       11.97996        7.27515
H        -20.47605       11.27285        8.83909
H        -21.81848       14.17447        6.70816
H        -22.11097       15.33166        8.07300
H        -21.23475       15.86359        6.59729
N        -20.25879       12.37369       12.27297
C        -20.36305       11.15305       13.07596
C        -20.79161       11.42441       14.51742
O        -21.71041       10.75365       14.96856
C        -19.09811       10.27036       12.93469
C        -17.76181       10.83617       13.33400
O        -17.61821       12.09635       13.77286
O        -16.77091       10.13196       13.22577
H        -19.55195       13.06473       12.54463
H        -21.15491       10.48755       12.66309
H        -19.01184        9.98523       11.86159
H        -19.26554        9.33545       13.51362
N        -20.21120       12.38495       15.29564
C        -20.62368       12.67046       16.66589
C        -19.51083       12.46133       17.67832
O        -19.75930       12.68184       18.85511
H        -19.46845       12.97199       14.90553
H        -21.47279       12.02281       16.97458
H        -20.97421       13.72213       16.71923
N        -18.28011       11.99500       17.31709
C        -17.23704       11.64888       18.28090
C        -16.72820       12.80677       19.13587
O        -16.31112       12.54592       20.25589
C        -16.05888       10.91809       17.59842
C        -15.36041       11.67746       16.49746
O        -15.80159       12.87467       16.07014
O        -14.39435       11.17228       15.95101
H        -18.10073       11.79135       16.32619
H        -17.68190       10.90951       18.98444
H        -16.43967        9.97457       17.15108
H        -15.31375       10.65213       18.37838
N        -16.69611       14.08912       18.68145
C        -16.21723       15.21666       19.47342
C        -15.06245       15.96159       18.82610
O        -14.70343       17.00816       19.34685
H        -17.04345       14.28312       17.73677
H        -15.90438       14.91127       20.49578
H        -17.06350       15.92797       19.58245
N        -14.42864       15.50176       17.70642
C        -13.37619       16.23487       17.01124
C        -13.82356       16.47346       15.55164
O        -13.82775       15.26485       14.84905
C        -12.04621       15.44208       17.05020
C        -11.48389       15.29643       18.46748
C        -10.14455       14.60179       18.43822
N        -10.02894       13.32861       17.99202
O         -9.14962       15.19917       18.82120
H        -14.70021       14.59454       17.31468
H        -13.21414       17.22986       17.48106
H        -11.28007       15.97167       16.44747
H        -12.19746       14.43618       16.60076
H        -12.18482       14.72294       19.11020
H        -11.35602       16.31271       18.90165
H        -10.85414       12.80202       17.67143
H         -9.10845       12.86470       17.97009
N        -13.03190       17.52297       14.87875
C        -13.15710       17.62932       13.40795
C        -12.17958       16.67438       12.71831
O        -11.03966       16.57178       13.15049
C        -12.91264       19.10231       12.97943
C        -13.05267       19.27677       11.45562
C        -13.91642       20.04413       13.67232
H        -12.03797       17.58898       15.19161
H        -14.19592       17.39988       13.09024
H        -11.88543       19.40553       13.27844
H        -12.30480       18.66262       10.91439
H        -14.07023       18.98114       11.11712
H        -12.88048       20.33708       11.17270
H        -13.72613       21.09774       13.37636
H        -14.95903       19.78698       13.38704
H        -13.82643       19.98321       14.77702
N        -12.55935       15.97319       11.60955
C        -11.72035       14.97453       10.93881
C        -11.26061       15.45300        9.55831
O        -11.69995       16.49665        9.10130
C        -12.54316       13.66731       10.90146
C        -11.95319       12.49947       10.16071
N        -10.78280       11.94037       10.53755
O        -12.56774       12.02917        9.21651
H        -13.50108       16.14792       11.22644
H        -10.78870       14.80799       11.52284
H        -13.52913       13.89136       10.44123
H        -12.72249       13.35517       11.94809
H        -10.25211       12.31194       11.33723
H        -10.40846       11.13148       10.02001
N        -10.26615       14.78246        8.89660
C         -9.63489       15.25979        7.66080
C        -10.46555       15.01933        6.40271
O        -10.15227       15.61574        5.38318
C         -8.22977       14.63012        7.48827
C         -8.29311       13.14206        7.21998
C         -8.49061       12.67123        5.91018
C         -8.17509       12.21527        8.26862
C         -8.58453       11.30159        5.65672
C         -8.28003       10.84496        8.01431
C         -8.48754       10.38321        6.71066
O         -8.59247        9.05895        6.48300
H         -9.84156       13.98567        9.38302
H         -9.47695       16.35533        7.78267
H         -7.64212       14.82853        8.41172
H         -7.67615       15.12444        6.65957
H         -8.57313       13.36532        5.08328
H         -8.02141       12.55103        9.28637
H         -8.73852       10.95734        4.64194
H         -8.20607       10.14193        8.83408
H         -8.74246        8.70103        5.59639
N        -11.50649       14.13775        6.38868
C        -12.37508       13.91846        5.22929
C        -13.77067       14.44224        5.53193
O        -14.69266       14.19129        4.76473
C        -12.40992       12.42165        4.83097
C        -13.02480       11.49234        5.89144
C        -13.16357       10.09336        5.36267
O        -14.26653        9.57512        5.28210
O        -12.07432        9.40152        4.97818
H        -11.73856       13.63567        7.25597
H        -12.00591       14.47176        4.33897
H        -11.38114       12.07903        4.58527
H        -13.02143       12.33722        3.90449
H        -14.03383       11.86240        6.17704
H        -12.38384       11.46622        6.79214
N        -13.98383       15.20865        6.63292
C        -15.26709       15.68341        7.09467
C        -15.31023       17.18741        6.92519
O        -16.19041       17.67567        6.23251
C        -15.38456       15.23470        8.55761
C        -16.65995       15.66829        9.26124
C        -16.60218       15.18210       10.67329
O        -16.60539       16.06799       11.67712
O        -16.48820       13.99095       10.91825
H        -13.18276       15.48741        7.21394
H        -16.10071       15.23314        6.50831
H        -14.52130       15.63759        9.12968
H        -15.32169       14.12207        8.57990
H        -17.52665       15.23415        8.74547
H        -16.73718       16.77780        9.25785
N        -14.35770       17.97910        7.49556
C        -14.28396       19.41132        7.30877
H        -13.31337       19.66021        6.82829
H        -15.10033       19.79680        6.66426
H        -14.33458       19.91359        8.29630
H        -13.62510       17.55260        8.07289
Ca       -15.69905       15.42824       13.60701
O        -16.81905       18.08566       14.45374
H        -17.77454       18.29057       14.60583
H        -16.73648       18.01973       13.47100
O        -17.79620       16.14303       16.27728
H        -18.52267       15.52841       16.54929
H        -17.69390       16.76031       17.04425
O        -14.79827       12.68039       13.24579
H        -15.01522       12.04672       12.51786
H        -13.96977       12.32140       13.65024

Ca 1.0



