%chk=holoCaM.loop1.water2.frame223.chk
%nprocshared=20
%mem=10GB
%nosave
#b3lyp/svp scf=(tight,noincore,xqc) Test 
#IOP(5/87=12) Density=Current Pop=(MK,readradii) iop(6/33=2) iop(6/42=6)

holoCaM.loop1.water2.frame223 

   0  1 
C         28.67038       65.93993       44.69276
C         27.58012       65.82653       45.71791
O         27.56004       66.63360       46.63169
H         29.65454       65.84111       45.19933
H         28.59556       65.14078       43.92562
H         28.61638       66.92707       44.19025
N         26.64597       64.83637       45.62693
C         25.59801       64.57368       46.61857
C         26.24018       64.20932       47.95686
O         26.57081       63.05506       48.18901
C         24.67187       63.46603       46.05461
C         23.73062       62.80068       47.02096
O         23.82224       61.59318       47.15396
O         22.77433       63.44624       47.71868
H         26.70404       64.21748       44.80310
H         24.97252       65.48181       46.75854
H         25.31784       62.65209       45.65384
H         24.10149       63.88200       45.19662
N         26.53534       65.20352       48.84295
C         27.27359       65.02151       50.08823
C         26.43624       64.37772       51.18937
O         27.01717       64.00352       52.19846
C         27.85006       66.40282       50.49838
C         28.66806       66.45016       51.79610
C         29.36619       67.81838       51.91449
C         30.13070       68.01388       53.23250
N         29.22686       68.15054       54.37662
H         26.30767       66.16515       48.56612
H         28.14182       64.35777       49.87725
H         27.02360       67.14315       50.59188
H         28.50549       66.72604       49.65774
H         29.44440       65.65474       51.79372
H         27.97802       66.28770       52.64806
H         28.63247       68.64670       51.80379
H         30.09653       67.89467       51.07831
H         30.72376       68.95167       53.14621
H         30.84153       67.17420       53.39658
H         29.79141       68.34910       55.23371
H         28.57193       68.95159       54.21912
H         28.68290       67.27396       54.53443
N         25.08313       64.21518       51.08459
C         24.27175       63.58055       52.12625
C         23.55272       62.32704       51.62468
O         22.81844       61.72902       52.39921
C         23.32794       64.61003       52.78759
C         22.29784       65.24953       51.90139
O         21.45404       66.15459       52.43256
O         22.20966       64.96795       50.71884
H         24.60150       64.56608       50.24525
H         24.91970       63.22724       52.95822
H         23.95429       65.42053       53.22147
H         22.79536       64.11450       53.62857
N         23.79768       61.80557       50.38654
C         23.31887       60.49726       49.96423
C         21.86114       60.41077       49.55547
O         21.46540       59.31843       49.17166
H         24.47708       62.26815       49.76855
H         23.53363       59.75593       50.76374
H         23.91405       60.17420       49.08699
N         20.99218       61.46448       49.59810
C         19.58180       61.29802       49.23278
C         19.35403       60.97746       47.75042
O         18.24989       60.56380       47.42457
C         18.72296       62.49286       49.69891
C         19.15964       63.81206       49.13636
O         19.52586       64.80792       49.96394
O         19.15948       64.00008       47.93526
H         21.31915       62.37337       49.95495
H         19.20317       60.42121       49.80561
H         18.78056       62.55389       50.80695
H         17.65981       62.31631       49.42525
N         20.32551       61.13423       46.80266
C         20.17159       60.72093       45.41208
C         20.17539       61.86496       44.41626
O         20.15377       61.57295       43.22833
H         21.22926       61.53731       47.07029
H         19.22511       60.15968       45.25324
H         21.00650       60.02795       45.17242
N         20.12540       63.17518       44.79880
C         20.01429       64.28303       43.84865
C         21.06095       65.35831       44.10841
O         21.81720       65.26724       45.06191
C         18.58861       64.89902       43.91596
C         17.50037       63.90908       43.47250
O         18.31213       65.41069       45.19540
H         20.09165       63.39911       45.79933
H         20.17199       63.92093       42.80867
H         18.52087       65.74632       43.20223
H         18.04536       64.65513       45.77946
H         17.69126       63.57475       42.43087
H         17.47068       63.02017       44.13702
H         16.50851       64.40863       43.50566
N         21.14387       66.42197       43.26277
C         22.04177       67.56130       43.41342
C         21.19684       68.83181       43.50159
O         20.32621       69.04417       42.66886
C         23.06239       67.56455       42.23189
C         24.11774       66.44862       42.49357
C         23.75332       68.93037       42.07462
C         25.15259       66.26376       41.38237
H         20.52454       66.43236       42.43777
H         22.63757       67.49850       44.35169
H         22.51769       67.36986       41.28137
H         23.60182       65.47484       42.62944
H         24.66733       66.67716       43.43602
H         23.00825       69.72574       41.86488
H         24.31688       69.18726       42.99132
H         24.43765       68.93171       41.20401
H         25.84891       65.44599       41.66770
H         24.65084       65.99140       40.43144
H         25.76764       67.17425       41.23479
N         21.46231       69.75075       44.47533
C         20.74650       71.01062       44.66529
C         21.59716       72.16499       44.15424
O         22.64252       71.92350       43.57617
C         20.41253       71.20888       46.17465
C         19.56031       70.07297       46.74857
O         21.58477       71.40351       46.93330
H         22.26766       69.58026       45.08736
H         19.79639       71.01553       44.08729
H         19.79808       72.12314       46.29837
H         21.94932       70.52054       47.19429
H         18.60686       69.98248       46.18784
H         20.11564       69.11810       46.68622
H         19.33026       70.27992       47.81613
N         21.21574       73.45779       44.34444
C         22.02834       74.60544       43.94026
C         23.41751       74.55086       44.57367
O         24.40392       74.61407       43.85376
C         21.32796       75.93862       44.32648
C         20.03458       76.15827       43.53355
O         21.04166       75.95931       45.70300
H         20.32345       73.63390       44.82556
H         22.15683       74.59837       42.83405
H         22.02563       76.77123       44.07253
H         20.93267       76.90938       45.96758
H         19.29125       75.35938       43.73281
H         19.58322       77.13149       43.82168
H         20.25507       76.18409       42.44580
N         23.55822       74.44055       45.92180
C         24.84019       74.45801       46.62730
C         25.75001       73.32723       46.19141
O         26.88953       73.58743       45.83083
C         24.59141       74.36200       48.14883
C         23.92786       75.64407       48.67864
C         23.54933       75.50885       50.15816
C         22.94066       76.79983       50.73329
N         23.92216       77.88426       50.81964
H         22.69710       74.34247       46.47880
H         25.36903       75.41745       46.42878
H         25.55874       74.23884       48.68541
H         23.96074       73.47003       48.36399
H         23.00170       75.87677       48.11193
H         24.64778       76.47448       48.52759
H         24.43332       75.21866       50.76570
H         22.78965       74.70007       50.24064
H         22.57117       76.57895       51.75858
H         22.06962       77.12123       50.11912
H         23.47714       78.70963       51.28143
H         24.74059       77.58007       51.39594
H         24.24533       78.17943       49.87199
N         25.31210       72.04261       46.21486
C         26.14876       70.89035       45.87737
C         26.71496       71.04434       44.47526
O         27.92415       70.96250       44.31190
C         25.33698       69.58484       46.03020
C         24.87307       69.39313       47.49257
C         23.96444       68.21966       47.66099
O         22.92849       68.14903       47.02266
O         24.23733       67.28645       48.58729
H         24.32682       71.89360       46.47458
H         27.00233       70.82649       46.58942
H         25.95470       68.71018       45.73021
H         24.46312       69.63350       45.35333
H         24.29661       70.26706       47.84649
H         25.75814       69.28326       48.15607
N         25.89761       71.34294       43.43095
C         26.35880       71.59591       42.08125
H         27.45526       71.46552       41.97581
H         25.84986       70.90699       41.37815
H         26.10020       72.63944       41.79993
H         24.89622       71.44133       43.61077
Ca        22.15553       65.59708       47.76458
O         19.26505       66.82920       47.71323
H         19.64905       66.87718       46.80218
H         18.48770       67.44143       47.69562
O         21.05087       68.25017       49.63293
H         21.47605       67.94721       50.47326
H         20.09769       68.37621       49.86929

Ca 1.0



