%chk=holoCaM-CaMKII.loop2.water2.frame84.chk
%nprocshared=20
%mem=10GB
%nosave
#b3lyp/svp scf=(tight,noincore,xqc) Test 
#IOP(5/87=12) Density=Current Pop=(MK,readradii) iop(6/33=2) iop(6/42=6)

holoCaM-CaMKII.loop2.water2.frame84 

   -2  1 
C          0.67265       49.04369       85.26737
C         -0.46926       48.67845       86.17857
O         -1.41094       49.44431       86.31548
H          1.62917       49.04543       85.83033
H          0.74508       48.28588       84.45497
H          0.52070       50.03822       84.79858
N         -0.45804       47.46722       86.79275
C         -1.56889       46.91370       87.56403
C         -1.77105       47.58687       88.92295
O         -0.80299       47.71197       89.66040
C         -1.27821       45.41896       87.82420
C         -2.47376       44.65462       88.30750
O         -2.33640       43.36350       88.65823
O         -3.57844       45.16842       88.32771
H          0.35782       46.86160       86.60688
H         -2.48421       46.97066       86.93434
H         -0.45088       45.33115       88.56157
H         -0.95465       44.92388       86.88566
N         -3.02093       47.93652       89.36191
C         -3.29554       48.44461       90.70841
C         -4.28404       47.57929       91.51689
O         -4.51767       47.92946       92.66585
C         -3.85546       49.86705       90.58940
H         -3.81655       47.82181       88.72284
H         -2.35441       48.49853       91.29702
H         -4.81477       49.86015       90.02692
H         -4.03618       50.30616       91.59430
H         -3.13292       50.51763       90.05280
N         -4.94750       46.49802       90.99462
C         -6.03947       45.80442       91.70187
C         -6.01714       44.26574       91.63254
O         -6.89094       43.66282       92.24156
C         -7.38530       46.33894       91.17108
C         -7.60662       46.06635       89.71644
O         -8.59704       46.51420       89.16160
O         -6.70563       45.37728       88.99959
H         -4.78476       46.27035       90.01435
H         -6.01131       46.07010       92.78061
H         -7.40005       47.44152       91.31646
H         -8.23109       45.90448       91.74476
N         -5.07377       43.55490       90.94874
C         -5.00045       42.09397       90.97432
C         -6.09850       41.32019       90.24608
O         -6.05612       40.09997       90.32349
H         -4.31650       44.05674       90.47139
H         -4.97739       41.76595       92.03655
H         -4.04129       41.77892       90.51006
N         -7.09110       41.90861       89.51483
C         -8.14551       41.13497       88.83813
C         -7.64734       40.25335       87.67437
O         -8.46142       39.55130       87.09027
C         -9.26815       42.08562       88.34971
C         -8.87345       43.00379       87.22044
N         -9.74523       43.93516       86.77242
O         -7.77506       42.90684       86.69654
H         -7.12948       42.93501       89.47641
H         -8.61457       40.47452       89.60094
H         -9.59892       42.70218       89.21418
H        -10.14181       41.49046       88.00563
H        -10.67440       44.04062       87.20414
H         -9.48631       44.55884       85.99554
N         -6.34367       40.25207       87.26854
C         -5.81930       39.47064       86.15733
C         -6.38966       39.89518       84.81905
O         -6.85718       39.03528       84.09116
H         -5.66019       40.82400       87.77215
H         -5.99454       38.38655       86.33853
H         -4.72044       39.62936       86.10868
N         -6.32485       41.20000       84.41667
C         -6.83201       41.73703       83.14451
C         -6.43038       43.20418       82.99646
O         -6.65755       43.97975       83.91577
C         -8.38389       41.70662       82.99293
C         -9.03206       40.33334       82.84724
O         -9.00785       42.38909       84.04995
H         -5.85184       41.85177       85.05641
H         -6.38890       41.16602       82.29821
H         -8.61135       42.20909       82.01933
H         -9.12500       43.33284       83.76542
H        -10.09974       40.46368       82.57261
H         -8.53417       39.75372       82.03953
H         -9.02660       39.77637       83.80178
N         -5.88676       43.66951       81.83423
C         -5.58709       45.08831       81.63270
C         -6.90403       45.86349       81.58703
O         -7.75239       45.53240       80.76935
C         -4.77444       45.37601       80.32607
C         -3.55034       44.43234       80.16624
C         -4.30735       46.85172       80.35482
C         -2.74116       44.69042       78.89173
H         -5.72496       42.99715       81.07320
H         -4.94455       45.42265       82.47683
H         -5.43536       45.21745       79.44459
H         -3.89676       43.38430       80.08558
H         -2.88004       44.50891       81.04863
H         -3.79871       47.14580       79.41710
H         -5.16076       47.54214       80.46762
H         -3.61181       47.02083       81.20709
H         -3.39988       44.64272       77.99788
H         -2.23357       45.67499       78.92599
H         -1.95247       43.91599       78.79215
N         -7.13058       46.92290       82.41180
C         -8.36205       47.71881       82.37796
C         -8.18231       48.87562       81.42745
O         -7.10932       49.00668       80.86341
C         -8.68479       48.29550       83.77149
C         -8.66048       47.25834       84.83636
O         -9.61360       47.08840       85.57976
O         -7.51884       46.57943       85.01731
H         -6.36133       47.22898       83.02193
H         -9.21388       47.08467       82.04527
H         -9.66995       48.81114       83.76518
H         -7.90239       49.03637       84.04721
N         -9.17983       49.76699       81.18464
C         -8.96915       50.90973       80.31037
C         -7.99435       51.91952       80.93337
O         -7.02424       52.23388       80.26183
C        -10.30229       51.53602       79.85620
C        -10.07727       52.60726       78.81363
C        -10.50263       53.92452       79.04745
C         -9.44001       52.29931       77.59451
C        -10.28925       54.91502       78.08376
C         -9.22352       53.29327       76.63867
C         -9.64789       54.60046       76.88239
H        -10.10930       49.61351       81.60656
H         -8.51414       50.51744       79.37475
H        -10.87110       51.93804       80.71154
H        -10.93040       50.74058       79.39887
H        -10.99804       54.18540       79.97416
H         -9.10593       51.29292       77.37750
H        -10.62027       55.92785       78.26931
H         -8.72689       53.04764       75.70852
H         -9.48080       55.36845       76.13903
N         -8.13881       52.45544       82.19523
C         -7.17250       53.36665       82.81294
C         -5.74037       52.87430       82.71497
O         -4.86508       53.62196       82.30133
C         -7.59554       53.39527       84.29264
C         -9.08856       53.23331       84.19018
C         -9.21000       52.14810       83.12417
H         -7.28286       54.37429       82.35399
H         -7.23188       52.48510       84.82304
H         -7.24186       54.28396       84.85808
H         -9.60953       53.00360       85.14453
H         -9.49689       54.18323       83.77635
H         -9.03361       51.13848       83.54672
H        -10.22440       52.21946       82.69992
N         -5.45227       51.59471       83.07073
C         -4.12309       50.99424       83.03436
C         -3.55231       51.04446       81.62743
O         -2.42055       51.47470       81.45976
C         -4.19693       49.53546       83.53859
C         -4.66805       49.46821       85.01062
C         -4.80230       48.07046       85.53627
O         -5.26777       47.88453       86.78370
O         -4.52584       47.10224       84.84861
H         -6.24723       51.00589       83.35968
H         -3.43708       51.54229       83.71855
H         -3.19058       49.06675       83.46795
H         -4.89464       48.96461       82.89067
H         -5.66406       49.93754       85.12712
H         -3.95298       50.02214       85.65454
N         -4.30943       50.66030       80.56482
C         -3.86772       50.69787       79.18709
H         -2.80561       51.00203       79.09179
H         -3.99276       49.69130       78.73639
H         -4.49719       51.41805       78.62150
H         -5.27080       50.36190       80.73569
Ca        -7.06171       45.49220       86.84904
O         -4.78401       43.05171       86.95274
H         -4.07493       42.36455       86.87173
H         -5.03034       43.04736       87.91116
O         -3.34362       44.49132       84.91129
H         -2.45128       44.16736       85.18827
H         -3.17719       44.96842       84.06102

Ca 1.0



