%chk=holoCaM.loop4.water3.frame110.chk
%nprocshared=20
%mem=10GB
%nosave
#b3lyp/svp scf=(tight,noincore,xqc) Test 
#IOP(5/87=12) Density=Current Pop=(MK,readradii) iop(6/33=2) iop(6/42=6)

holoCaM.loop4.water3.frame110 

   -3  1 
C        -15.33744        7.57854      127.48538
C        -15.40670        6.22963      126.84088
O        -14.35561        5.64884      126.61375
H        -14.76058        8.27388      126.84309
H        -16.34900        7.99336      127.66961
H        -14.81831        7.47679      128.46436
N        -16.60925        5.63458      126.57998
C        -16.70581        4.24864      126.14730
C        -17.66450        4.05788      124.97420
O        -18.77365        4.57142      125.00102
C        -17.14277        3.41091      127.36041
C        -16.78849        1.95924      127.22226
O        -16.20357        1.49046      126.10018
O        -16.99182        1.20894      128.16015
H        -17.47780        6.12860      126.83487
H        -15.69426        3.88087      125.86615
H        -18.22281        3.55638      127.58048
H        -16.55973        3.75486      128.24269
N        -17.31791        3.21693      123.96257
C        -18.15518        2.84303      122.82868
C        -18.68239        1.42015      123.02823
O        -19.86993        1.21134      122.82170
C        -17.30803        2.93587      121.51246
C        -16.80251        4.37326      121.21577
C        -18.03750        2.35934      120.28091
C        -17.88695        5.38743      120.83973
H        -16.40901        2.75209      124.03068
H        -19.04041        3.50963      122.73432
H        -16.40298        2.30391      121.65731
H        -16.07810        4.32918      120.37187
H        -16.26249        4.75997      122.09904
H        -17.38354        2.42720      119.38419
H        -18.27481        1.28537      120.42699
H        -18.98628        2.89678      120.07968
H        -17.41241        6.37458      120.65500
H        -18.40452        5.09064      119.90424
H        -18.62829        5.50498      121.65443
N        -17.85033        0.38796      123.36373
C        -18.23983       -1.02510      123.29511
C        -18.19990       -1.80965      124.61686
O        -18.47532       -3.00110      124.56912
C        -17.38069       -1.70956      122.20084
C        -15.88934       -1.71802      122.42773
O        -15.34129       -1.16852      123.51931
O        -15.15776       -2.22286      121.59287
H        -16.87297        0.61335      123.57976
H        -19.29228       -1.11014      122.94660
H        -17.56329       -1.17738      121.24249
H        -17.71607       -2.76063      122.07771
N        -17.93458       -1.24118      125.82917
C        -17.97753       -1.99034      127.09005
C        -16.88799       -3.04958      127.26797
O        -16.93972       -3.76876      128.25526
H        -17.78284       -0.23093      125.87456
H        -18.97263       -2.48137      127.16770
H        -17.89251       -1.28429      127.94299
N        -15.88552       -3.21371      126.36145
C        -14.86202       -4.26777      126.40252
C        -13.83698       -4.19894      127.55893
O        -12.95928       -5.05110      127.58681
C        -14.11043       -4.27338      125.04540
C        -13.35026       -2.99790      124.78046
O        -13.35815       -2.01431      125.70453
O        -12.68458       -2.88923      123.76466
H        -15.89332       -2.59748      125.54208
H        -15.38479       -5.24644      126.47646
H        -14.84925       -4.41977      124.22689
H        -13.40345       -5.13017      125.01962
N        -13.87199       -3.25587      128.54347
C        -12.92204       -3.20531      129.65642
C        -11.57199       -2.56402      129.34066
O        -10.79317       -2.39994      130.26881
H        -14.65088       -2.59346      128.56348
H        -12.79485       -4.21695      130.10116
H        -13.36617       -2.56174      130.44611
N        -11.23254       -2.14478      128.08886
C        -10.00985       -1.41446      127.75304
C        -10.34928       -0.06579      127.10863
O        -11.51843        0.22732      126.89835
C         -9.14739       -2.25908      126.78364
C         -8.67769       -3.57055      127.43155
C         -7.68098       -4.30122      126.56449
N         -8.02416       -4.77989      125.34609
O         -6.54259       -4.46888      126.97675
H        -11.87091       -2.34484      127.32602
H         -9.41214       -1.20580      128.66702
H         -8.24044       -1.68023      126.50925
H         -9.71537       -2.47237      125.84999
H         -9.54416       -4.23322      127.64338
H         -8.18277       -3.32239      128.39593
H         -8.97897       -4.66307      124.97902
H         -7.32894       -5.27901      124.77001
N         -9.35010        0.79608      126.74617
C         -9.55825        2.04988      126.02184
C         -8.93398        1.92346      124.64210
O         -7.73896        1.68927      124.52662
C         -9.00137        3.27050      126.82058
C         -8.77883        4.51695      125.93919
C         -9.98135        3.65039      127.94431
H         -8.37473        0.53064      126.94875
H        -10.63512        2.23622      125.86616
H         -8.01049        3.00861      127.25157
H         -9.71818        4.83085      125.44597
H         -8.39801        5.36320      126.54956
H         -8.01003        4.31819      125.16291
H        -10.15565        2.79956      128.63235
H         -9.58965        4.51039      128.52906
H        -10.95925        3.95927      127.50720
N         -9.72029        2.09998      123.54181
C         -9.24021        2.07362      122.16678
C         -8.72325        3.44974      121.77447
O         -8.83844        4.37629      122.55587
C        -10.42395        1.62709      121.26902
C        -10.11822        1.48522      119.80316
N         -9.17708        0.61475      119.37394
O        -10.74125        2.15253      118.99086
H        -10.71384        2.32369      123.68701
H         -8.41403        1.33494      122.08268
H        -11.25992        2.35213      121.39325
H        -10.77323        0.63694      121.62386
H         -8.64508        0.04105      120.04336
H         -8.97857        0.51776      118.36805
N         -8.11445        3.65097      120.57610
C         -7.64185        4.95255      120.11419
C         -8.79634        5.93527      119.94578
O         -8.70638        7.03657      120.47043
C         -6.75748        4.78863      118.85143
C         -7.40814        4.14857      117.64643
C         -8.17552        4.91307      116.75525
C         -7.21074        2.78123      117.37843
C         -8.74471        4.31740      115.62372
C         -7.79623        2.18529      116.25887
C         -8.56637        2.94897      115.37873
O         -9.12683        2.35967      114.30351
H         -7.95535        2.83357      119.97727
H         -6.94741        5.37241      120.87749
H         -5.90830        4.14126      119.16556
H         -6.29711        5.75555      118.55344
H         -8.32553        5.97094      116.93061
H         -6.61347        2.16976      118.04367
H         -9.33300        4.91988      114.94323
H         -7.64903        1.12817      116.07566
H         -9.67387        2.85103      113.67432
N         -9.93348        5.59082      119.27382
C        -11.07513        6.49731      119.10919
C        -11.63034        6.95456      120.45025
O        -12.11262        8.07492      120.54143
C        -12.20977        5.84781      118.27667
C        -11.75097        5.51742      116.84929
C        -12.84746        4.91682      116.02114
O        -13.21007        5.46464      114.99221
O        -13.40765        3.74801      116.38649
H         -9.99098        4.63926      118.88674
H        -10.73297        7.40190      118.55929
H        -13.06040        6.56237      118.20433
H        -12.57126        4.92477      118.78334
H        -10.93630        4.77888      116.88664
H        -11.38050        6.44618      116.36065
N        -11.62368        6.12351      121.52596
C        -12.13861        6.49987      122.83944
C        -11.24375        7.54957      123.48110
O        -11.73165        8.61876      123.81898
C        -12.26765        5.24258      123.72573
C        -13.30617        4.27932      123.11607
C        -13.47256        2.99576      123.86681
O        -12.81611        2.76880      125.01422
O        -14.20528        2.13175      123.41731
H        -11.24405        5.17372      121.39771
H        -13.16658        6.91661      122.73562
H        -12.59620        5.53304      124.74565
H        -11.28515        4.73519      123.80157
H        -13.01033        4.01001      122.08261
H        -14.28666        4.79101      123.08095
N         -9.91558        7.31000      123.66324
C         -8.98453        8.24838      124.25457
H         -8.19730        8.49828      123.51139
H         -9.47621        9.18735      124.58105
H         -8.49898        7.77584      125.13472
H         -9.52915        6.41696      123.35316
Ca       -14.76684       -0.25255      125.96358
O        -13.67677        2.33217      127.74095
H        -13.23653        2.41294      128.62281
H        -13.62250        3.24146      127.35724
O        -14.58995       -0.08461      129.09575
H        -15.30572       -0.49389      128.54951
H        -14.73130       -0.46203      129.99866
O        -12.47233       -0.05131      123.47834
H        -12.75532       -0.44377      122.61372
H        -11.64231       -0.53403      123.71826

Ca 1.0



