%chk=holoCaM-CaMKII.loop3.water1.frame408.chk
%nprocshared=20
%mem=10GB
%nosave
#b3lyp/svp scf=(tight,noincore,xqc) Test 
#IOP(5/87=12) Density=Current Pop=(MK,readradii) iop(6/33=2) iop(6/42=6)

holoCaM-CaMKII.loop3.water1.frame408 

   0  1 
C         25.75900       51.73000       45.00008
C         24.51745       51.93591       45.80826
O         24.44821       51.40707       46.90889
H         26.63276       52.10773       45.57060
H         25.89096       50.64477       44.80550
H         25.70340       52.26410       44.02939
N         23.48025       52.67507       45.31902
C         22.24956       52.88215       46.06127
C         21.12098       52.14123       45.36114
O         20.84253       52.38791       44.19616
C         21.97233       54.38389       46.25691
C         20.79737       54.61808       47.16895
O         20.45153       55.75099       47.43678
O         20.10151       53.57618       47.65421
H         23.55136       53.08192       44.37356
H         22.36074       52.46471       47.08375
H         21.79015       54.87338       45.27530
H         22.86178       54.85388       46.72967
N         20.45550       51.17621       46.05009
C         19.43594       50.28698       45.50791
C         18.24169       51.04667       44.94412
O         17.85008       50.75956       43.82161
C         19.02360       49.30464       46.62988
C         18.19594       48.10035       46.16534
C         17.97109       47.15141       47.35560
C         17.23018       45.87344       46.94927
N         17.03649       44.99996       48.10815
H         20.72948       51.03437       47.03431
H         19.89949       49.68036       44.69713
H         18.49226       49.85419       47.43790
H         19.96226       48.88262       47.05696
H         18.76216       47.55913       45.37492
H         17.22211       48.43395       45.74780
H         17.39068       47.68245       48.14143
H         18.95631       46.85723       47.78286
H         17.82295       45.33128       46.17861
H         16.24077       46.13574       46.51530
H         16.46096       45.48719       48.83315
H         16.53731       44.13225       47.80692
H         17.96104       44.73176       48.51846
N         17.62949       52.04038       45.65490
C         16.43949       52.75883       45.18960
C         16.73354       54.22335       44.82564
O         15.80409       54.91573       44.43330
C         15.30626       52.59516       46.23893
C         15.60992       53.32094       47.51554
O         15.59331       54.53820       47.52489
O         16.18617       52.67708       48.54307
H         18.02651       52.29801       46.56776
H         16.06122       52.29106       44.25423
H         15.18650       51.50934       46.44594
H         14.33783       52.97079       45.84411
N         18.00144       54.74177       44.84422
C         18.33534       56.06619       44.32644
C         17.91291       57.25360       45.17581
O         18.11972       58.36839       44.71645
H         18.79023       54.13840       45.11116
H         17.89358       56.16702       43.30952
H         19.43810       56.14100       44.21166
N         17.32912       57.12772       46.40218
C         16.86355       58.29120       47.16471
C         17.98345       59.20036       47.67020
O         17.66436       60.27662       48.15894
C         15.98959       57.86918       48.36581
C         16.79342       57.22899       49.47253
N         16.83822       57.78590       50.70220
O         17.42236       56.20813       49.25767
H         17.15683       56.18534       46.76458
H         16.20786       58.87404       46.47948
H         15.19182       57.17629       48.02491
H         15.48657       58.77605       48.76715
H         16.32513       58.65280       50.91865
H         17.39846       57.34179       51.43967
N         19.29619       58.82646       47.64705
C         20.37360       59.66553       48.14548
C         21.16802       59.06327       49.29599
O         22.10498       59.72719       49.71177
H         19.55350       57.91793       47.25000
H         19.99358       60.65040       48.48986
H         21.07403       59.85784       47.30322
N         20.90927       57.83260       49.84923
C         21.78399       57.27848       50.89357
C         21.74868       55.75842       50.98402
O         20.92294       55.11682       50.35537
C         21.54418       57.95857       52.26989
C         20.17393       57.74007       52.89366
C         19.72926       56.45680       53.27329
C         19.33894       58.84361       53.15127
C         18.48120       56.28434       53.88047
C         18.09335       58.66896       53.76562
C         17.65873       57.39072       54.12994
O         16.45330       57.23830       54.71518
H         20.14571       57.26060       49.46921
H         22.83098       57.48430       50.57671
H         21.72454       59.04712       52.14661
H         22.30290       57.60085       52.99718
H         20.34040       55.58120       53.11926
H         19.65276       59.84496       52.88543
H         18.15734       55.28988       54.16203
H         17.46450       59.52907       53.95839
H         16.11302       56.37025       54.97572
N         22.69412       55.12328       51.74525
C         22.81329       53.67416       51.86439
C         22.73603       53.23985       53.32215
O         23.46249       53.75557       54.15773
C         24.11878       53.14843       51.18729
C         25.42664       53.73714       51.78596
C         24.03297       53.39153       49.66955
C         26.69735       53.09421       51.22434
H         23.39506       55.69723       52.23401
H         21.98258       53.17217       51.32249
H         24.13630       52.04500       51.34135
H         25.45777       53.54920       52.87594
H         25.47280       54.83364       51.61633
H         24.02644       54.47752       49.43920
H         24.87673       52.91438       49.13488
H         23.10364       52.93599       49.26893
H         27.58393       53.52370       51.73693
H         26.68405       51.99786       51.40487
H         26.81304       53.28916       50.14006
N         21.90072       52.22194       53.66852
C         21.82987       51.62471       54.99576
C         22.33175       50.18485       54.93374
O         22.70987       49.71874       53.86800
C         20.38106       51.68809       55.50223
O         19.94105       53.02148       55.54210
H         21.32354       51.80234       52.93562
H         22.48150       52.17216       55.71135
H         20.29804       51.21523       56.50864
H         19.71144       51.11600       54.82489
H         19.87098       53.28505       56.49671
N         22.40136       49.43211       56.06792
C         22.94162       48.07612       56.09859
C         22.13111       47.10413       55.25865
O         22.71930       46.42583       54.42912
C         23.01208       47.56328       57.54166
H         22.10214       49.86064       56.95648
H         23.99006       48.09922       55.72189
H         23.64780       48.24043       58.15150
H         22.00200       47.51200       57.99915
H         23.46994       46.55028       57.56263
N         20.79117       46.93262       55.45776
C         20.01798       45.90597       54.75741
C         19.86817       46.12714       53.25607
O         19.39586       45.20646       52.60246
C         18.61831       45.78150       55.36426
H         20.33001       47.49731       56.18763
H         20.54250       44.93605       54.91678
H         18.05993       44.95034       54.88085
H         18.69091       45.56395       56.45006
H         18.05333       46.72692       55.21735
N         20.24382       47.28221       52.63069
C         20.15684       47.45203       51.17742
C         21.53211       47.40086       50.53134
O         21.60039       47.37871       49.30958
C         19.44203       48.76488       50.78501
C         20.19683       50.00815       51.28276
C         19.65726       51.26163       50.67648
O         19.71130       51.41532       49.46870
O         19.16374       52.24141       51.45571
H         20.64980       48.04093       53.19319
H         19.58021       46.61194       50.73232
H         18.40001       48.78401       51.17335
H         19.38694       48.79519       49.67457
H         21.26988       49.96061       50.99826
H         20.11603       50.05504       52.38621
N         22.67277       47.39207       51.27374
C         23.98430       47.33129       50.67873
H         24.75540       47.35339       51.47854
H         24.08993       46.38680       50.10567
H         24.13546       48.20386       50.01006
H         22.62924       47.44608       52.29441
Ca        18.19184       53.62694       48.82621
O         16.47536       53.84407       51.47225
H         17.22844       53.93125       52.10868
H         15.96028       53.06554       51.80237

Ca 1.0



