%chk=holoCaM.loop1.water2.frame277.chk
%nprocshared=20
%mem=10GB
%nosave
#b3lyp/svp scf=(tight,noincore,xqc) Test 
#IOP(5/87=12) Density=Current Pop=(MK,readradii) iop(6/33=2) iop(6/42=6)

holoCaM.loop1.water2.frame277 

   0  1 
C         46.33610        7.45079       36.54126
C         46.99065        7.04758       35.26024
O         47.43802        7.91999       34.52796
H         45.28858        7.08979       36.55437
H         46.89715        7.01267       37.39321
H         46.34180        8.55779       36.64565
N         47.11909        5.72877       34.93373
C         47.83729        5.31938       33.73970
C         47.08540        5.75316       32.48519
O         46.03682        5.19783       32.18771
C         48.09273        3.79603       33.72387
C         49.08720        3.45303       32.65787
O         50.05752        4.34022       32.37900
O         49.14241        2.33028       32.19723
H         46.76725        5.01436       35.58967
H         48.82662        5.82774       33.80434
H         47.13931        3.24133       33.57572
H         48.52789        3.46805       34.69247
N         47.54181        6.79898       31.74488
C         46.83158        7.35312       30.59846
C         46.90012        6.44284       29.37402
O         45.85938        5.94910       28.96263
C         47.35964        8.77882       30.33574
C         46.60315        9.52379       29.23250
C         46.95766       11.01660       29.27334
C         46.19824       11.80394       28.20127
N         46.42504       13.24087       28.35593
H         48.36005        7.30474       32.10404
H         45.76438        7.47429       30.89552
H         48.44834        8.77531       30.10712
H         47.21773        9.33600       31.28994
H         45.50998        9.42795       29.40973
H         46.84916        9.07951       28.24316
H         48.05228       11.16247       29.13901
H         46.66840       11.41268       30.27254
H         45.10780       11.60345       28.29403
H         46.53413       11.47410       27.19319
H         47.44421       13.46082       28.27732
H         45.90387       13.75282       27.60833
H         46.06824       13.55781       29.28755
N         48.07540        6.19773       28.71831
C         48.16079        5.35423       27.51269
C         47.82517        3.87003       27.76077
O         47.77085        3.13339       26.78527
C         49.54009        5.49589       26.79826
C         50.69651        5.08149       27.65706
O         51.84343        5.11606       27.24205
O         50.43705        4.77273       28.92885
H         48.91989        6.68129       29.05679
H         47.41181        5.73950       26.78571
H         49.69122        6.55763       26.50359
H         49.53706        4.88200       25.87201
N         47.52659        3.36538       28.99767
C         46.96456        2.03116       29.18369
C         47.93640        0.86525       29.18070
O         47.45614       -0.25514       29.28847
H         47.53484        3.98400       29.81892
H         46.17303        1.86651       28.42005
H         46.46230        1.99864       30.17479
N         49.29064        1.01121       29.11071
C         50.21285       -0.13237       29.17500
C         50.33362       -0.77217       30.58016
O         51.20279       -1.61460       30.75707
C         51.58761        0.25101       28.57330
C         52.36901        1.26227       29.34505
O         51.92256        1.71634       30.52294
O         53.43409        1.66347       28.90566
H         49.67822        1.95695       28.97803
H         49.85171       -0.91807       28.47491
H         51.41334        0.65346       27.55137
H         52.22003       -0.65828       28.47690
N         49.46936       -0.47978       31.60168
C         49.48530       -1.12706       32.90807
C         50.50613       -0.58431       33.89418
O         50.51901       -1.08631       35.01037
H         48.67358        0.13855       31.43192
H         49.60197       -2.22608       32.78064
H         48.49415       -0.96240       33.38502
N         51.38827        0.41196       33.58688
C         52.40416        0.90673       34.52212
C         52.36481        2.42889       34.66965
O         51.58037        3.07837       34.00426
C         53.80212        0.43035       34.05903
C         53.90680       -1.10183       34.03606
O         54.13609        0.96645       32.80554
H         51.37853        0.79979       32.63889
H         52.23084        0.48474       35.53656
H         54.56246        0.78235       34.78655
H         53.62519        0.47864       32.10910
H         53.69034       -1.51493       35.04368
H         53.19019       -1.53985       33.30857
H         54.93339       -1.40060       33.73888
N         53.19076        3.06296       35.54917
C         53.22999        4.50918       35.78425
C         54.62776        5.03810       35.48003
O         55.59849        4.49468       35.99149
C         52.83146        4.79567       37.26943
C         51.33106        4.49022       37.54414
C         53.17691        6.22788       37.73209
C         50.33427        5.44908       36.86950
H         53.82738        2.48256       36.11663
H         52.51901        5.05595       35.13086
H         53.43422        4.11521       37.91195
H         51.15391        4.55344       38.64018
H         51.09878        3.45064       37.23012
H         52.67875        6.99592       37.10690
H         52.87884        6.36799       38.79340
H         54.27165        6.40190       37.68337
H         49.29828        5.15376       37.13784
H         50.47654        6.49156       37.22408
H         50.41911        5.42711       35.76576
N         54.78224        6.17670       34.73902
C         56.05961        6.85310       34.52618
C         56.11289        8.12072       35.36295
O         55.14761        8.44812       36.03905
C         56.27357        7.22805       33.02669
C         56.28284        6.02639       32.09136
O         55.33526        8.18409       32.59407
H         53.93855        6.65175       34.40022
H         56.89834        6.20277       34.85814
H         57.27559        7.68986       32.91350
H         54.46903        7.72809       32.44028
H         55.28350        5.55975       32.10459
H         56.50448        6.36205       31.05486
H         57.05804        5.29558       32.40287
N         57.22746        8.89947       35.33904
C         57.34322       10.18725       36.01857
C         56.27252       11.15168       35.53112
O         55.67683       11.83498       36.35086
C         58.75278       10.79255       35.80707
C         59.82963        9.94109       36.49024
O         59.05586       10.90168       34.43842
H         58.02597        8.57134       34.77680
H         57.20713       10.04977       37.11554
H         58.79987       11.79577       36.29291
H         58.68311       11.76507       34.12258
H         59.62626        9.87271       37.58059
H         59.86648        8.91298       36.07390
H         60.82616       10.40851       36.34833
N         55.94423       11.21826       34.20994
C         54.86936       12.05574       33.68230
C         53.54469       11.70747       34.34992
O         52.90670       12.58785       34.91019
C         54.78927       11.85756       32.14413
C         53.68713       12.65067       31.41439
C         53.75873       14.18050       31.57096
C         55.08350       14.82909       31.12548
N         55.38534       14.58708       29.71354
H         56.46371       10.61561       33.55305
H         55.11144       13.12164       33.88391
H         54.61563       10.78197       31.92234
H         55.77337       12.12161       31.70164
H         52.69221       12.31017       31.77413
H         53.74008       12.39502       30.33394
H         53.58249       14.44362       32.63479
H         52.92818       14.62412       30.97892
H         55.92305       14.46525       31.75564
H         54.99582       15.92593       31.29058
H         56.24819       15.11981       29.45751
H         55.56810       13.57246       29.54467
H         54.59620       14.91526       29.11107
N         53.07019       10.43265       34.31142
C         51.76711       10.03043       34.84713
C         51.72675       10.04041       36.37511
O         50.65554        9.82380       36.92460
C         51.40810        8.61693       34.33095
C         51.39391        8.57225       32.78633
C         51.32979        7.17741       32.25679
O         52.24786        6.27034       32.63522
O         50.51384        6.88346       31.40336
H         53.65521        9.73217       33.83739
H         50.99754       10.73524       34.46046
H         50.41796        8.28612       34.71718
H         52.17099        7.91841       34.72593
H         52.32976        8.98011       32.36760
H         50.55706        9.19062       32.39357
N         52.84581       10.25459       37.12647
C         52.86601       10.25696       38.57501
H         53.25262       11.23451       38.93337
H         51.86229       10.08988       39.01647
H         53.54750        9.45541       38.93199
H         53.74609       10.40677       36.66604
Ca        51.56873        4.28634       30.73884
O         53.59487        6.30911       29.79246
H         54.37909        6.90750       29.71454
H         53.79752        5.55250       29.18685
O         54.72507        3.30722       31.65619
H         55.67251        3.23380       31.38041
H         54.22318        2.89427       30.91548

Ca 1.0



