%chk=holoCaM.loop2.water2.frame122.chk
%nprocshared=20
%mem=10GB
%nosave
#b3lyp/svp scf=(tight,noincore,xqc) Test 
#IOP(5/87=12) Density=Current Pop=(MK,readradii) iop(6/33=2) iop(6/42=6)

holoCaM.loop2.water2.frame122 

   -2  1 
C        104.77299      102.47911       -3.26453
C        105.50290      103.71819       -2.83566
O        105.73553      103.90402       -1.65116
H        103.84414      102.75566       -3.80491
H        105.42416      101.88981       -3.94651
H        104.51355      101.84486       -2.39096
N        105.92651      104.60251       -3.77610
C        106.73770      105.77544       -3.47557
C        105.98188      106.80113       -2.63408
O        104.90161      107.21186       -3.03472
C        107.19390      106.43137       -4.79701
C        108.27231      107.45064       -4.58573
O        108.70063      108.08997       -5.53230
O        108.82274      107.61379       -3.37059
H        105.71458      104.38669       -4.76341
H        107.64793      105.42398       -2.94243
H        106.31895      106.89565       -5.30182
H        107.62175      105.66058       -5.47357
N        106.52460      107.29278       -1.47984
C        105.88269      108.29348       -0.63330
C        106.68021      109.59881       -0.50609
O        106.14209      110.51894        0.09519
C        105.66775      107.68988        0.76118
H        107.43687      106.93806       -1.18620
H        104.88929      108.56071       -1.05375
H        105.13869      108.40433        1.42731
H        105.05989      106.76295        0.68911
H        106.64632      107.43235        1.22445
N        107.95587      109.76080       -0.98574
C        108.74459      110.97570       -0.73379
C        109.65957      111.41678       -1.89365
O        110.32530      112.43111       -1.73582
C        109.53651      110.80616        0.58390
C        110.55759      109.70105        0.58111
O        110.73658      109.00854       -0.40514
O        111.28371      109.46999        1.69077
H        108.43292      108.94649       -1.38252
H        108.05269      111.82951       -0.55828
H        108.81339      110.60063        1.40345
H        110.05382      111.75975        0.82494
N        109.73063      110.75279       -3.08563
C        110.52262      111.20482       -4.23006
C        112.04221      111.13766       -4.09020
O        112.71072      111.55492       -5.02510
H        109.12743      109.94196       -3.23800
H        110.23005      112.25108       -4.46463
H        110.25947      110.57968       -5.11061
N        112.66863      110.64944       -2.98364
C        114.13031      110.67616       -2.80509
C        114.93182      109.80206       -3.78445
O        116.14703      109.94148       -3.80151
C        114.48538      110.25296       -1.35891
C        114.34842      108.73601       -1.16128
N        114.30466      108.39412        0.25857
O        113.21284      108.27382       -1.83254
H        112.07883      110.32540       -2.20699
H        114.43731      111.73707       -2.93421
H        113.82176      110.80581       -0.65708
H        115.53568      110.52011       -1.11488
H        115.11426      108.83533        0.74880
H        114.43858      107.36184        0.34815
N        114.34719      108.84474       -4.56752
C        115.08713      107.99583       -5.49471
C        114.99386      106.49923       -5.21245
O        115.14403      105.74022       -6.15970
H        113.33495      108.71760       -4.52304
H        116.16668      108.25580       -5.52694
H        114.69525      108.18534       -6.51712
N        114.89728      105.99267       -3.94520
C        115.02626      104.55944       -3.63334
C        113.80137      104.00893       -2.89700
O        112.85290      104.74284       -2.66518
C        116.31821      104.34878       -2.79437
C        117.57080      104.76072       -3.57768
O        116.23570      105.08222       -1.59863
H        114.81419      106.65001       -3.15706
H        115.13092      103.95509       -4.56149
H        116.43463      103.26791       -2.56049
H        116.91343      104.70344       -0.97938
H        117.64723      104.16596       -4.51345
H        117.54666      105.84007       -3.83383
H        118.47815      104.56374       -2.96782
N        113.78449      102.70706       -2.47221
C        112.72717      102.10363       -1.66371
C        113.16396      102.14006       -0.21050
O        114.24835      101.66912        0.10689
C        112.43868      100.63907       -2.13503
C        111.86882      100.57124       -3.57578
C        111.51596       99.87442       -1.16217
C        110.49417      101.22697       -3.75599
H        114.61625      102.12360       -2.64209
H        111.79144      102.68974       -1.73408
H        113.40353      100.08367       -2.13851
H        111.77240       99.50193       -3.86770
H        112.58494      101.04574       -4.27919
H        111.34239       98.83873       -1.52496
H        111.98947       99.78493       -0.16417
H        110.53968      100.38097       -1.03973
H        110.54206      102.30627       -3.53186
H        110.16293      101.10978       -4.80860
H        109.72634      100.75597       -3.10861
N        112.32667      102.65440        0.73702
C        112.64243      102.69310        2.16143
C        112.03510      101.48957        2.82801
O        111.37623      100.70621        2.16151
C        112.06523      103.96184        2.84934
C        112.31394      105.18646        2.05702
O        111.70136      105.26489        0.87340
O        113.02254      106.09396        2.46195
H        111.37950      102.93321        0.44686
H        113.74681      102.68276        2.29712
H        112.49459      104.06616        3.86817
H        110.95834      103.88644        2.93174
N        112.18604      101.27822        4.15576
C        111.51908      100.18624        4.83935
C        109.98850      100.28515        4.74545
O        109.40192       99.31106        4.30042
C        112.00374      100.08138        6.29336
C        111.31490       98.95195        7.02115
C        111.34356       97.63747        6.51439
C        110.61727       99.21188        8.21071
C        110.66995       96.61137        7.17933
C        109.95762       98.17864        8.88016
C        109.97886       96.88096        8.36230
H        112.78628      101.92215        4.69701
H        111.83161       99.24342        4.33800
H        111.83579      101.04492        6.81992
H        113.09927       99.89067        6.28228
H        111.86977       97.40237        5.59849
H        110.58496      100.21370        8.62080
H        110.68266       95.60760        6.77447
H        109.42572       98.38662        9.79852
H        109.45973       96.08415        8.87722
N        109.25798      101.38999        5.11486
C        107.79878      101.44904        5.04058
C        107.27963      101.20844        3.63407
O        106.28548      100.50728        3.49404
C        107.45958      102.84652        5.58433
C        108.69380      103.65455        5.25559
C        109.80111      102.65311        5.57607
H        107.31278      100.70395        5.70886
H        106.48823      103.27078        5.24848
H        107.43736      102.78216        6.69592
H        108.69007      103.86484        4.16581
H        108.78197      104.62735        5.78403
H        110.71398      102.98475        5.06271
H        109.97420      102.58706        6.67179
N        107.90927      101.71897        2.54463
C        107.43566      101.51420        1.17971
C        107.44513      100.03014        0.84559
O        106.40551       99.48880        0.49787
C        108.29857      102.31649        0.18351
C        108.26026      103.83107        0.49392
C        109.11553      104.65236       -0.42294
O        109.71222      104.14863       -1.35934
O        109.26839      105.96451       -0.17090
H        108.77484      102.25223        2.69619
H        106.39530      101.90135        1.09002
H        107.92281      102.14508       -0.84959
H        109.34554      101.95896        0.23907
H        108.64026      104.02361        1.51490
H        107.21657      104.20629        0.44664
N        108.58661       99.30163        0.97423
C        108.64637       97.87771        0.73047
H        109.67403       97.50518        0.93575
H        107.94252       97.34757        1.40704
H        108.39199       97.65878       -0.32677
H        109.44214       99.76886        1.28402
Ca       112.25306      106.68103       -0.66174
O        111.44359      107.28272       -4.24330
H        111.56895      107.12052       -5.21198
H        111.15238      108.22734       -4.18769
O        110.33222      104.77292       -4.18682
H        109.43858      104.36513       -4.07566
H        110.56355      104.61119       -5.13508

Ca 1.0



