%chk=holoCaM-CaMKII.loop3.water3.frame216.chk
%nprocshared=20
%mem=10GB
%nosave
#b3lyp/svp scf=(tight,noincore,xqc) Test 
#IOP(5/87=12) Density=Current Pop=(MK,readradii) iop(6/33=2) iop(6/42=6)

holoCaM-CaMKII.loop3.water3.frame216 

   0  1 
C         20.34926       63.09410       40.28199
C         20.33989       63.65078       38.89122
O         19.73548       64.69025       38.67561
H         20.81034       63.83261       40.97050
H         19.30751       62.88921       40.60469
H         20.93071       62.14943       40.33552
N         21.01125       63.02049       37.89018
C         21.04704       63.53435       36.53005
C         19.65093       63.45843       35.90805
O         19.05327       62.39214       35.96282
C         22.05334       62.72263       35.68590
C         22.36987       63.42909       34.40518
O         23.07067       62.89382       33.56694
O         21.91460       64.67488       34.19755
H         21.54136       62.16341       38.11332
H         21.42216       64.58242       36.57872
H         21.64238       61.70942       35.48412
H         23.01626       62.60399       36.22400
N         19.07581       64.53597       35.29204
C         17.69134       64.54075       34.80944
C         17.53949       64.42037       33.29667
O         16.42460       64.15319       32.86780
C         16.94617       65.78848       35.32676
C         16.98125       65.96140       36.85427
C         16.36452       64.76818       37.59299
C         16.27850       65.02477       39.10022
N         15.71109       63.86415       39.78508
H         19.62979       65.39028       35.20326
H         17.18082       63.63199       35.19068
H         15.88452       65.74358       34.99947
H         17.40217       66.69563       34.87143
H         16.40967       66.88310       37.09904
H         18.02519       66.10970       37.19772
H         16.98564       63.86339       37.42373
H         15.34065       64.58463       37.20168
H         15.63511       65.91358       39.28421
H         17.29003       65.23466       39.51130
H         14.76225       63.64771       39.40126
H         16.33750       63.03532       39.66104
H         15.62472       64.07491       40.80499
N         18.58395       64.53914       32.43008
C         18.49478       64.15613       31.01769
C         19.45802       63.00226       30.72282
O         19.50554       62.56445       29.58173
C         18.62533       65.37604       30.06631
C         19.83809       66.21441       30.30151
O         21.05967       65.68647       30.18200
O         19.71815       67.36023       30.70515
H         19.49909       64.84051       32.79103
H         17.48875       63.74273       30.78334
H         17.73301       66.02064       30.22767
H         18.60254       65.03913       29.00678
N         20.17572       62.38604       31.71816
C         20.94633       61.16952       31.51365
C         22.18691       61.32007       30.66043
O         22.78801       60.29619       30.36567
H         20.09834       62.70497       32.69246
H         20.27484       60.41294       31.05097
H         21.26873       60.76685       32.49901
N         22.64069       62.52689       30.21066
C         23.76228       62.63023       29.27571
C         25.11031       62.19190       29.86083
O         26.06746       62.12356       29.10401
C         23.82466       64.04990       28.65367
C         24.41673       65.12432       29.53463
N         25.33839       65.98458       29.04278
O         24.05232       65.24123       30.68845
H         22.12517       63.37830       30.46775
H         23.51033       61.95114       28.43097
H         22.78919       64.34402       28.37410
H         24.41090       64.01379       27.71174
H         25.65505       65.92310       28.06509
H         25.73156       66.72760       29.63964
N         25.26798       61.90656       31.19019
C         26.52807       61.49932       31.80244
C         27.08029       62.55470       32.74936
O         28.11954       62.31352       33.34771
H         24.46882       62.00142       31.82440
H         27.30694       61.31340       31.03222
H         26.36079       60.54750       32.35036
N         26.48999       63.77721       32.86545
C         27.05466       64.91910       33.57842
C         25.99501       65.53221       34.48325
O         24.86238       65.67688       34.04082
C         27.49414       65.92853       32.50287
C         28.59371       65.34272       31.63888
C         28.30495       64.84472       30.35804
C         29.91438       65.27019       32.11239
C         29.30914       64.29263       29.56147
C         30.92508       64.72699       31.30896
C         30.62356       64.23611       30.02935
O         31.58333       63.70721       29.24374
H         25.64183       63.97038       32.31579
H         27.95434       64.65085       34.17647
H         27.84463       66.88639       32.94477
H         26.60760       66.15949       31.87606
H         27.30014       64.86025       29.98079
H         30.16268       65.64423       33.09743
H         29.06248       63.90670       28.57980
H         31.94075       64.68703       31.68109
H         32.50764       63.65209       29.52432
N         26.29589       65.96365       35.74553
C         25.29204       66.51622       36.65747
C         25.50837       68.01874       36.81169
O         26.52091       68.42984       37.36236
C         25.37061       65.80753       38.04564
C         25.25949       64.26777       37.91776
C         24.28429       66.35113       39.00011
C         25.67018       63.53837       39.20171
H         27.27522       65.91584       36.06764
H         24.27433       66.35018       36.23857
H         26.37433       66.03599       38.46942
H         25.95389       63.90140       37.13294
H         24.22711       63.98549       37.62640
H         23.27023       66.13580       38.59795
H         24.36697       65.90828       40.01142
H         24.38416       67.44549       39.13303
H         25.60888       62.44158       39.04343
H         26.72254       63.79271       39.45715
H         25.01908       63.79566       40.05939
N         24.58230       68.89824       36.33209
C         24.67960       70.34834       36.48018
C         24.31421       70.77896       37.89239
O         23.92303       69.95102       38.70012
C         23.71269       71.04427       35.49993
O         24.03760       70.69596       34.18322
H         23.78565       68.52038       35.81043
H         25.71240       70.67375       36.22588
H         23.78999       72.14835       35.61942
H         22.66742       70.73948       35.71422
H         23.66883       71.40862       33.59892
N         24.38963       72.09296       38.24432
C         23.94166       72.60632       39.53378
C         22.43743       72.45317       39.68172
O         21.99099       71.86105       40.65396
C         24.30873       74.08888       39.66624
H         24.77499       72.75989       37.55826
H         24.46599       72.06606       40.35361
H         25.41040       74.20882       39.59470
H         23.83465       74.69485       38.86479
H         23.97690       74.47692       40.65302
N         21.59628       72.97481       38.74188
C         20.13927       72.91387       38.82872
C         19.63993       71.49076       38.96925
O         18.73404       71.26081       39.75847
C         19.50193       73.57051       37.59673
H         22.01634       73.43779       37.92036
H         19.80050       73.49547       39.71474
H         19.82898       74.63021       37.52141
H         19.79162       73.03888       36.66517
H         18.39365       73.56065       37.68606
N         20.19972       70.47926       38.25023
C         19.76150       69.09119       38.36483
C         19.95366       68.60181       39.79075
O         18.98262       68.18817       40.40992
C         20.48302       68.18778       37.33435
C         20.17491       68.67271       35.90024
C         20.69631       67.76741       34.82691
O         19.94327       67.36741       33.95407
O         21.99697       67.44134       34.77168
H         20.97746       70.71215       37.61631
H         18.67620       69.03572       38.12060
H         20.10828       67.14969       37.45540
H         21.58225       68.17943       37.51053
H         20.62549       69.66794       35.73692
H         19.07508       68.76984       35.76966
N         21.16922       68.67403       40.39738
C         21.36835       68.29471       41.78023
H         22.42407       68.47687       42.07527
H         20.71367       68.90630       42.43924
H         21.13522       67.21888       41.92123
H         21.97236       69.04410       39.87465
Ca        21.96491       65.60226       32.19947
O         24.80100       68.28895       32.66236
H         25.10190       67.95791       31.78064
H         25.46891       68.97870       32.90105
O         21.50378       69.57357       32.51390
H         21.08816       70.20804       33.15038
H         21.41201       70.01092       31.63151
O         22.96020       68.12792       30.14769
H         22.16867       68.48731       29.67507
H         23.73386       68.50814       29.66114

Ca 1.0



