%chk=holoCaM.loop1.water2.frame94.chk
%nprocshared=20
%mem=10GB
%nosave
#b3lyp/svp scf=(tight,noincore,xqc) Test 
#IOP(5/87=12) Density=Current Pop=(MK,readradii) iop(6/33=2) iop(6/42=6)

holoCaM.loop1.water2.frame94 

   0  1 
C         67.41366       37.93561       17.91229
C         66.55217       39.04158       17.37138
O         65.33608       38.96396       17.45700
H         68.18577       38.34108       18.59959
H         66.80938       37.17385       18.44690
H         67.92580       37.43958       17.05838
N         67.14356       40.11354       16.78282
C         66.42841       41.16234       16.06274
C         65.89220       40.57399       14.76943
O         66.65781       39.95633       14.04140
C         67.40000       42.33760       15.81265
C         66.88316       43.34139       14.83432
O         67.54088       43.60765       13.84273
O         65.66583       43.87807       14.99291
H         68.17476       40.15250       16.80351
H         65.58903       41.56716       16.67523
H         68.36343       41.95841       15.41584
H         67.58842       42.83753       16.78726
N         64.58019       40.73142       14.42515
C         63.96848       40.07479       13.27548
C         63.56226       41.02458       12.16313
O         63.28003       40.53714       11.07621
C         62.72602       39.29507       13.74307
C         62.99991       38.25318       14.83909
C         64.06235       37.24843       14.38535
C         64.07751       35.97752       15.23205
N         65.12286       35.07486       14.74978
H         63.98249       41.31068       15.02525
H         64.70272       39.38162       12.80978
H         62.27862       38.77184       12.86956
H         61.96862       40.01328       14.13126
H         62.03517       37.73632       15.03032
H         63.31934       38.73398       15.79009
H         65.06123       37.73502       14.42162
H         63.84644       36.94190       13.34017
H         63.08713       35.47783       15.13356
H         64.25019       36.21402       16.30505
H         65.00378       34.89640       13.72504
H         66.06267       35.50169       14.91984
H         65.06021       34.16474       15.25829
N         63.51035       42.37296       12.33693
C         63.21582       43.30580       11.25508
C         64.42132       44.20809       10.98022
O         64.28004       45.16612       10.23303
C         61.86337       44.03115       11.48721
C         61.73014       44.69896       12.81910
O         62.78678       45.33548       13.34629
O         60.71830       44.53199       13.47929
H         63.70981       42.77084       13.26437
H         63.06297       42.77482       10.29010
H         61.05580       43.26514       11.42181
H         61.66700       44.76285       10.67672
N         65.67882       43.84523       11.39178
C         66.89405       44.47266       10.88483
C         67.11410       45.90721       11.30196
O         67.96938       46.55162       10.71155
H         65.80524       43.00284       11.97013
H         66.85640       44.42283        9.77696
H         67.78501       43.88951       11.20650
N         66.44192       46.45929       12.34476
C         66.61807       47.84531       12.77150
C         67.63617       47.98816       13.90370
O         67.79155       49.09570       14.40107
C         65.23395       48.45238       13.10343
C         64.53433       47.80006       14.26221
O         63.40414       48.14389       14.56480
O         65.14128       46.84340       14.97754
H         65.80887       45.85437       12.88347
H         67.01774       48.45461       11.92920
H         64.59010       48.34605       12.20347
H         65.33604       49.53518       13.33026
N         68.42775       46.94550       14.30736
C         69.47523       47.09568       15.30873
C         68.96541       47.01228       16.73092
O         69.72999       47.32325       17.63328
H         68.36801       46.04184       13.82285
H         70.00060       48.06235       15.13803
H         70.23372       46.29413       15.18851
N         67.69505       46.60646       17.01556
C         67.12862       46.63299       18.35934
C         66.21703       45.44246       18.63978
O         65.84810       44.70446       17.73852
C         66.33129       47.94933       18.55130
C         67.22372       49.17215       18.77387
O         65.47922       48.17706       17.45844
H         67.07637       46.34500       16.24150
H         67.94058       46.57024       19.11749
H         65.71060       47.87236       19.46965
H         66.03404       48.47442       16.68919
H         66.57733       50.06075       18.94078
H         67.85351       49.01949       19.67467
H         67.87155       49.36678       17.89522
N         65.83007       45.21519       19.92938
C         64.93916       44.15201       20.37807
C         63.74051       44.78751       21.08415
O         63.90989       45.55141       22.02372
C         65.72451       43.14802       21.27327
C         66.70542       42.33131       20.38263
C         64.77577       42.19409       22.03262
C         67.78318       41.60112       21.18177
H         66.21064       45.83469       20.66114
H         64.56661       43.55841       19.52571
H         66.29679       43.73316       22.02519
H         67.24859       43.01028       19.69430
H         66.13806       41.60422       19.75433
H         64.13217       42.76772       22.73157
H         64.12353       41.63627       21.32906
H         65.33411       41.46444       22.65096
H         67.35743       40.85099       21.87620
H         68.46890       41.07731       20.48160
H         68.37569       42.34369       21.75766
N         62.48565       44.44633       20.68224
C         61.23060       44.87163       21.30166
C         60.76868       43.84180       22.29295
O         61.42212       42.82763       22.45698
C         60.12331       45.01136       20.20951
C         60.28296       46.29987       19.42575
O         60.08896       43.88406       19.36054
H         62.42577       43.72746       19.95987
H         61.36030       45.81540       21.87477
H         59.11333       45.09430       20.65882
H         60.71550       44.02717       18.60291
H         61.31459       46.36022       19.06117
H         59.56395       46.32114       18.57936
H         60.08225       47.16154       20.09491
N         59.62610       44.04853       23.00466
C         59.03695       43.01541       23.84122
C         58.49164       41.87978       22.96528
O         58.39638       40.76432       23.45718
C         57.96406       43.60744       24.79316
C         58.60332       44.61665       25.77063
O         56.95064       44.23219       24.04654
H         59.14307       44.95527       22.91424
H         59.83758       42.59490       24.49150
H         57.52617       42.77699       25.39217
H         56.25164       44.52145       24.69062
H         59.05885       45.47459       25.23210
H         57.83952       45.01733       26.47061
H         59.39301       44.12137       26.37582
N         58.10772       42.08725       21.66314
C         57.64265       41.01124       20.78315
C         58.80628       40.11141       20.35602
O         58.59754       38.92597       20.14469
C         56.91386       41.57980       19.53129
C         56.04779       40.50582       18.82739
C         55.28557       41.02718       17.59280
C         56.17082       41.11081       16.33816
N         55.41852       41.63463       15.19516
H         58.10986       43.04744       21.29172
H         56.88242       40.42831       21.34909
H         57.64466       42.05233       18.84090
H         56.20409       42.36925       19.86866
H         55.28615       40.18238       19.57116
H         56.63859       39.61170       18.53861
H         54.80825       42.00442       17.82418
H         54.47446       40.30242       17.35660
H         56.52548       40.08259       16.09666
H         57.05878       41.75296       16.51563
H         54.51978       41.11396       15.06829
H         55.21683       42.65036       15.34064
H         55.99083       41.52605       14.32641
N         60.05675       40.63075       20.17069
C         61.22753       39.84853       19.76316
C         61.93139       39.23671       20.96154
O         62.69922       38.30350       20.77267
C         62.21968       40.76932       19.01398
C         61.64484       41.18066       17.64899
C         62.35154       42.31460       16.97845
O         63.25673       43.06547       17.62705
O         62.03635       42.60666       15.83780
H         60.19577       41.63301       20.35541
H         60.91911       39.02435       19.08238
H         63.20373       40.27815       18.84121
H         62.40977       41.63877       19.66456
H         60.58722       41.49980       17.73652
H         61.70219       40.28814       16.99182
N         61.79219       39.76829       22.20676
C         62.49835       39.29742       23.37702
H         63.25982       40.05248       23.66849
H         61.77825       39.18818       24.21404
H         63.00155       38.32471       23.20353
H         61.19189       40.58292       22.33722
Ca        63.63536       44.74087       15.32937
O         63.03132       46.87137       17.48369
H         63.28034       47.62058       18.07682
H         62.13809       47.14097       17.15983
O         60.86226       45.39731       16.03175
H         60.52856       46.12955       15.45421
H         60.05414       45.02471       16.46042

Ca 1.0



