%chk=holoCaM-CaMKII.loop2.water2.frame261.chk
%nprocshared=20
%mem=10GB
%nosave
#b3lyp/svp scf=(tight,noincore,xqc) Test 
#IOP(5/87=12) Density=Current Pop=(MK,readradii) iop(6/33=2) iop(6/42=6)

holoCaM-CaMKII.loop2.water2.frame261 

   -2  1 
C         99.60176       98.75615       48.71984
C        100.08019       98.74790       47.29335
O        100.54847       97.72139       46.82757
H         98.79541       98.00086       48.84154
H        100.43565       98.51475       49.40879
H         99.18246       99.74612       49.00266
N         99.95601       99.86235       46.52528
C        100.25715       99.90038       45.09790
C        101.74165       99.66548       44.80640
O        102.57558      100.34739       45.38498
C         99.81279      101.26461       44.52803
C         99.72305      101.27083       43.03155
O         99.41224      102.29550       42.44734
O         99.89765      100.13707       42.33168
H         99.55250      100.70481       46.96450
H         99.63328       99.11800       44.61070
H        100.50493      102.05835       44.88294
H         98.78959      101.50401       44.88992
N        102.12995       98.73546       43.88330
C        103.51802       98.42375       43.54198
C        103.85538       98.69783       42.06772
O        104.96818       98.37902       41.67022
C        103.76221       96.93887       43.84877
H        101.39877       98.21080       43.39153
H        104.22198       99.01646       44.16583
H        103.10675       96.29710       43.22040
H        104.82074       96.66452       43.64864
H        103.54903       96.72633       44.91782
N        102.97550       99.28738       41.20025
C        103.24666       99.43513       39.75927
C        102.37170      100.46839       39.01705
O        102.57199      100.60658       37.81787
C        103.11051       98.04189       39.08121
C        101.72594       97.46635       39.24128
O        101.49869       96.30486       38.94416
O        100.76484       98.21726       39.80388
H        102.07540       99.57622       41.57646
H        104.28975       99.79977       39.63132
H        103.82433       97.34642       39.57159
H        103.37230       98.08569       38.00274
N        101.42244      101.24731       39.62217
C        100.64280      102.25828       38.91689
C         99.64467      101.73532       37.88970
O         99.02565      102.56540       37.23935
H        101.27935      101.20419       40.63237
H        101.34837      102.95712       38.41887
H        100.06037      102.84523       39.66112
N         99.42220      100.40566       37.67178
C         98.52064       99.89412       36.63555
C         97.02213      100.15639       36.87617
O         96.22864       99.72347       36.05170
C         98.78452       98.38912       36.37660
C         98.41696       97.43296       37.48035
N         98.55086       96.10507       37.26732
O         97.99144       97.83456       38.55139
H         99.96860       99.72705       38.20579
H         98.80010      100.39005       35.68006
H         99.86252       98.24628       36.14110
H         98.20402       98.08996       35.47776
H         98.90562       95.74732       36.36861
H         98.28511       95.42971       37.99101
N         96.55451      100.87274       37.93991
C         95.15274      101.22674       38.12451
C         94.33609      100.21642       38.91095
O         93.19085      100.53034       39.20481
H         97.21909      101.31154       38.58247
H         94.67339      101.46399       37.14887
H         95.12620      102.16359       38.72158
N         94.82464       98.99985       39.28762
C         94.06247       98.03391       40.08225
C         94.84828       97.55757       41.29556
O         96.01262       97.89601       41.45188
C         93.68084       96.81273       39.20007
C         92.60527       97.18537       38.18141
O         94.80458       96.30593       38.52475
H         95.76411       98.72603       38.97700
H         93.12713       98.48958       40.47630
H         93.22039       96.00379       39.80980
H         95.37081       95.85026       39.20013
H         92.95796       97.98258       37.49638
H         92.32823       96.28987       37.58537
H         91.69389       97.53797       38.71326
N         94.25775       96.68929       42.16518
C         94.96278       95.98344       43.22329
C         95.27693       94.60821       42.67497
O         94.35954       93.91129       42.25947
C         94.08311       95.87204       44.51011
C         93.76767       97.27057       45.09521
C         94.77131       94.97770       45.56812
C         92.75121       97.22872       46.24351
H         93.28702       96.39531       41.97755
H         95.91427       96.49667       43.48535
H         93.12255       95.38627       44.22588
H         93.32541       97.90752       44.30054
H         94.70430       97.75524       45.44822
H         95.74298       95.41380       45.88366
H         94.13338       94.82891       46.46058
H         94.95032       93.96075       45.16695
H         91.80130       96.76822       45.89637
H         93.13034       96.66287       47.11776
H         92.53612       98.26131       46.58853
N         96.55326       94.13586       42.68157
C         96.89567       92.78797       42.25162
C         97.01065       91.90302       43.46890
O         96.92828       92.40691       44.57850
C         98.21996       92.78689       41.46489
C         98.16304       93.65899       40.24995
O         97.94425       94.98093       40.37834
O         98.34267       93.17764       39.14283
H         97.29045       94.70708       43.11419
H         96.08445       92.37063       41.61548
H         98.45605       91.74943       41.14675
H         99.04517       93.15220       42.11685
N         97.14587       90.55537       43.34711
C         97.23913       89.68705       44.51140
C         98.53624       89.92239       45.28415
O         98.43786       90.05663       46.49596
C         97.04273       88.20477       44.15292
C         97.08518       87.36016       45.40558
C         96.12660       87.52929       46.42474
C         98.10873       86.41635       45.57788
C         96.20100       86.76956       47.59497
C         98.17899       85.65972       46.74989
C         97.22751       85.83650       47.75801
H         97.13738       90.13736       42.40365
H         96.38258       89.93387       45.17966
H         97.81705       87.87403       43.43889
H         96.05794       88.06844       43.65481
H         95.32584       88.25121       46.32102
H         98.86036       86.27725       44.81114
H         95.46543       86.90791       48.37732
H         98.97622       84.94025       46.87767
H         97.28708       85.25193       48.66628
N         99.77568       90.03578       44.69043
C        101.01319       90.33935       45.41573
C        100.99230       91.61114       46.26567
O        101.98073       91.88209       46.93388
C        102.05438       90.50894       44.30025
C        101.54259       89.55948       43.24654
C        100.04674       89.84718       43.28017
H        101.23779       89.46048       46.05945
H        101.96246       91.53119       43.86143
H        103.10766       90.35562       44.61807
H        102.00717       89.66403       42.24299
H        101.71246       88.52210       43.61670
H         99.80351       90.78480       42.74370
H         99.53256       88.98354       42.82448
N         99.90160       92.42529       46.30038
C         99.75867       93.61668       47.11330
C         98.76868       93.31465       48.21742
O         99.11635       93.44377       49.38218
C         99.22416       94.75639       46.23299
C        100.13384       95.01020       45.03236
C         99.53459       95.97591       44.07009
O        100.20483       96.22140       42.94676
O         98.46988       96.53581       44.27887
H         99.09616       92.21225       45.71223
H        100.73152       93.91599       47.56506
H         99.09529       95.68053       46.83272
H         98.22640       94.47058       45.83495
H        100.27748       94.06869       44.46027
H        101.12865       95.37594       45.36570
N         97.51547       92.86937       47.91809
C         96.54844       92.51214       48.92643
H         95.61521       92.15871       48.43589
H         96.94960       91.68884       49.55392
H         96.31273       93.39440       49.55529
H         97.23256       92.75516       46.93866
Ca        99.35789       97.40326       41.28386
O         97.01318       99.35488       43.67722
H         96.96598       98.73364       44.44564
H         96.70567      100.22280       44.03926
O         97.58356      100.08355       40.74499
H         96.85860      100.67575       41.06710
H         98.29876      100.70151       40.45293

Ca 1.0



