%chk=holoCaM-CaMKII.loop1.water2.frame194.chk
%nprocshared=20
%mem=10GB
%nosave
#b3lyp/svp scf=(tight,noincore,xqc) Test 
#IOP(5/87=12) Density=Current Pop=(MK,readradii) iop(6/33=2) iop(6/42=6)

holoCaM-CaMKII.loop1.water2.frame194 

   0  1 
C          7.90147       66.81983       39.71129
C          6.45060       67.20017       39.66898
O          6.14592       68.37438       39.72745
H          8.34125       67.13891       40.68028
H          8.03568       65.72175       39.61171
H          8.44105       67.32045       38.88163
N          5.48922       66.24881       39.60802
C          4.05964       66.52558       39.61644
C          3.55485       66.12959       40.98984
O          2.89763       65.11327       41.14991
C          3.43698       65.80072       38.41050
C          1.93849       65.75089       38.40421
O          1.14871       66.84096       38.42654
O          1.40026       64.65741       38.35771
H          5.78061       65.25850       39.61453
H          3.82436       67.60541       39.49599
H          3.80233       64.75037       38.39071
H          3.78786       66.29367       37.47958
N          3.90924       66.91112       42.05280
C          3.61772       66.59670       43.44887
C          2.13959       66.56756       43.83283
O          1.87395       66.14646       44.95079
C          4.38515       67.55106       44.39961
C          3.97024       69.03703       44.28603
C          4.75819       69.94924       45.24320
C          4.41679       69.70606       46.72361
N          5.16780       70.61323       47.59054
H          4.49485       67.73381       41.84985
H          4.01797       65.57461       43.62975
H          5.47270       67.46843       44.18187
H          4.22307       67.19264       45.43582
H          2.88228       69.16148       44.47515
H          4.17719       69.39425       43.25734
H          4.50067       71.00418       45.00254
H          5.84881       69.81484       45.07088
H          4.65608       68.66342       47.01701
H          3.32701       69.87267       46.87635
H          4.95344       71.60795       47.34930
H          4.89342       70.43975       48.58469
H          6.19377       70.43703       47.48826
N          1.12967       66.97264       43.00534
C         -0.28512       66.85787       43.38428
C         -1.02927       65.83922       42.52849
O         -2.19203       65.58286       42.80861
C         -0.98182       68.23800       43.41438
C         -1.06012       68.97496       42.10460
O         -1.66361       70.17805       42.06599
O         -0.59688       68.50509       41.07993
H          1.36547       67.34853       42.07642
H         -0.36895       66.46329       44.41976
H         -0.44789       68.88419       44.14379
H         -2.02184       68.10024       43.78457
N         -0.41650       65.17439       41.50924
C         -1.04472       64.11417       40.74648
C         -2.23655       64.61059       39.97615
O         -3.31591       64.05520       40.11770
H          0.55315       65.39282       41.26618
H         -1.32181       63.27658       41.42134
H         -0.30741       63.71997       40.01435
N         -2.08761       65.64794       39.11093
C         -3.14505       66.14451       38.23266
C         -2.80121       65.91522       36.76128
O         -3.66900       66.14945       35.93236
C         -3.51103       67.62760       38.54349
C         -2.37746       68.62557       38.47566
O         -2.57325       69.79964       38.74493
O         -1.13400       68.19266       38.23414
H         -1.15316       66.06694       39.06277
H         -4.07142       65.55468       38.40678
H         -3.91175       67.66687       39.58012
H         -4.32034       67.95058       37.85442
N         -1.58504       65.43240       36.35683
C         -1.27000       65.08383       34.97902
C         -0.24670       66.00372       34.34889
O          0.14159       65.73377       33.22022
H         -0.83461       65.27264       37.03941
H         -2.17388       65.11584       34.33346
H         -0.89305       64.03874       34.96935
N          0.16252       67.15347       34.95776
C          0.99209       68.15937       34.29642
C          2.12673       68.65338       35.18353
O          2.20091       68.29197       36.34554
C          0.07895       69.35445       33.88573
C         -0.78081       68.98579       32.67517
O         -0.78468       69.74020       34.92854
H         -0.22987       67.39278       35.87915
H          1.47447       67.74289       33.38455
H          0.69101       70.22835       33.57523
H         -0.28008       69.70955       35.77944
H         -1.42118       69.84862       32.39335
H         -0.12807       68.74166       31.80972
H         -1.43748       68.11812       32.89279
N          3.07335       69.48658       34.66504
C          4.14933       70.10869       35.43547
C          4.13697       71.60759       35.16014
O          4.06554       72.00832       34.00540
C          5.52902       69.47063       35.09908
C          5.51303       67.97381       35.51466
C          6.65992       70.21772       35.84586
C          6.79545       67.20979       35.18399
H          3.03493       69.68856       33.65318
H          4.00339       69.94331       36.52597
H          5.71311       69.55342       34.00544
H          4.68466       67.45577       34.98763
H          5.33248       67.89523       36.60981
H          7.65682       69.80457       35.59996
H          6.69750       71.28363       35.54502
H          6.50775       70.16372       36.94624
H          6.99766       67.25360       34.09373
H          7.66631       67.60725       35.74263
H          6.67301       66.14743       35.48381
N          4.27942       72.49074       36.18555
C          4.28995       73.94218       36.03191
C          5.67743       74.49459       36.29633
O          6.58069       73.74466       36.62923
C          3.27642       74.57173       37.02716
C          1.84293       74.16560       36.69799
O          3.59314       74.16766       38.33594
H          4.43555       72.11394       37.12837
H          4.02594       74.23475       34.99171
H          3.33276       75.68138       36.96152
H          3.11053       74.77018       38.95972
H          1.14666       74.62533       37.43229
H          1.57102       74.52450       35.68342
H          1.73728       73.06387       36.74158
N          5.90790       75.82884       36.16592
C          7.16661       76.47832       36.52251
C          7.45154       76.27973       38.00164
O          8.57117       75.94745       38.36307
C          7.10443       78.00244       36.22729
C          6.98786       78.29119       34.72674
O          6.02168       78.58919       36.90622
H          5.12859       76.41844       35.83790
H          8.00775       76.05758       35.92575
H          8.06176       78.45160       36.58506
H          6.21906       79.55816       36.99025
H          7.85764       77.86118       34.18678
H          6.05412       77.86834       34.30280
H          6.98055       79.38916       34.55888
N          6.45587       76.48027       38.90874
C          6.63071       76.42357       40.35659
C          7.16619       75.07200       40.77337
O          8.18870       74.99437       41.43954
C          5.29393       76.68776       41.10915
C          4.45793       77.88701       40.61337
C          5.24470       79.19380       40.46540
C          4.33901       80.28571       39.87801
N          5.07769       81.52874       39.66881
H          5.52691       76.69202       38.52981
H          7.34999       77.21831       40.65401
H          5.53902       76.82412       42.18524
H          4.62335       75.80364       41.03011
H          3.60443       78.03206       41.31044
H          4.00707       77.63726       39.63097
H          6.09162       79.04221       39.76310
H          5.64718       79.50813       41.45174
H          3.48323       80.47086       40.56394
H          3.93386       79.94159       38.89862
H          5.45349       81.88063       40.57850
H          5.86347       81.36983       38.99658
H          4.43047       82.24423       39.26560
N          6.51389       73.95484       40.36134
C          6.92958       72.59263       40.65715
C          8.36113       72.35038       40.20636
O          9.16131       71.90779       41.01868
C          5.95649       71.60810       39.98175
C          4.56438       71.64836       40.64823
C          3.58044       70.71556       40.00567
O          3.24278       70.87827       38.84629
O          3.01510       69.73031       40.72699
H          5.68545       74.09205       39.76538
H          6.88750       72.40820       41.75420
H          6.36892       70.60076       40.10635
H          5.89182       71.82863       38.89421
H          4.13350       72.66880       40.60873
H          4.67922       71.36207       41.71565
N          8.76434       72.65876       38.94432
C         10.12558       72.49797       38.47312
H         10.78826       72.03845       39.23624
H         10.13082       71.85521       37.56883
H         10.54012       73.49391       38.20773
H          8.08606       73.06445       38.29348
Ca         0.89915       69.08829       38.55524
O         -0.41038       71.73003       37.20559
H         -0.63470       71.99978       36.27965
H         -0.57049       72.54508       37.74077
O          0.50960       72.07373       40.18531
H         -0.15388       72.18473       40.91124
H          0.81433       72.99435       39.98466

Ca 1.0



