%chk=holoCaM.loop4.water3.frame39.chk
%nprocshared=20
%mem=10GB
%nosave
#b3lyp/svp scf=(tight,noincore,xqc) Test 
#IOP(5/87=12) Density=Current Pop=(MK,readradii) iop(6/33=2) iop(6/42=6)

holoCaM.loop4.water3.frame39 

   -3  1 
C          5.46961      -16.29501       22.19919
C          4.83979      -15.32231       23.15207
O          4.40662      -14.26710       22.71622
H          6.51514      -16.50774       22.49700
H          4.88453      -17.24071       22.20866
H          5.45692      -15.89559       21.16143
N          4.69753      -15.64955       24.46819
C          3.92080      -14.85387       25.41257
C          4.67890      -14.61302       26.71863
O          5.12877      -15.58491       27.31133
C          2.64205      -15.65839       25.72175
C          1.61413      -14.88269       26.48722
O          1.73638      -13.68193       26.66169
O          0.51318      -15.51228       26.93539
H          5.04889      -16.56813       24.78141
H          3.61816      -13.88741       24.95232
H          2.91881      -16.57282       26.29014
H          2.15588      -15.98383       24.77736
N          4.79087      -13.36225       27.26790
C          5.41557      -13.11421       28.57892
C          4.44028      -12.55344       29.63038
O          4.84809      -12.41529       30.77440
C          6.64064      -12.15437       28.44212
C          6.21486      -10.72093       28.01381
C          7.67958      -12.75315       27.47999
C          7.35788       -9.70566       28.00095
H          4.39595      -12.56672       26.74595
H          5.78560      -14.07483       28.99847
H          7.11709      -12.07944       29.44559
H          5.46170      -10.33241       28.73174
H          5.75867      -10.74121       27.00750
H          7.27293      -12.81385       26.44796
H          8.60485      -12.14306       27.46287
H          7.96556      -13.77194       27.81569
H          8.11831       -9.96283       27.23716
H          6.95247       -8.70303       27.74554
H          7.83553       -9.64807       29.00182
N          3.18375      -12.13339       29.30293
C          2.29290      -11.40225       30.21898
C          0.84145      -11.92282       30.24278
O          0.04069      -11.35942       30.97757
C          2.29515       -9.90364       29.82417
C          1.75360       -9.66952       28.44124
O          1.37542      -10.72658       27.69998
O          1.61991       -8.53496       28.01475
H          2.90909      -12.22814       28.32632
H          2.68502      -11.45675       31.25757
H          3.32864       -9.50002       29.88270
H          1.66912       -9.33799       30.54966
N          0.42423      -12.97684       29.48553
C         -0.92521      -13.52823       29.52996
C         -2.05666      -12.71270       28.89837
O         -3.17744      -13.19329       28.99890
H          1.11489      -13.48864       28.92985
H         -1.17825      -13.74092       30.59147
H         -0.92055      -14.50356       28.99735
N         -1.90099      -11.51699       28.24187
C         -3.05669      -10.76357       27.72042
C         -3.79043      -11.41127       26.53025
O         -4.75832      -10.82499       26.06449
C         -2.74460       -9.25715       27.47298
C         -2.04572       -8.80332       26.21227
O         -1.60344       -9.64888       25.27267
O         -1.90644       -7.60589       26.02409
H         -0.96967      -11.09213       28.19692
H         -3.78692      -10.71639       28.56019
H         -2.19871       -8.86009       28.35641
H         -3.72815       -8.73917       27.43653
N         -3.43793      -12.62858       26.01913
C         -4.17373      -13.31351       24.95930
C         -3.89939      -12.81336       23.54911
O         -4.43406      -13.40401       22.62338
H         -2.67405      -13.15216       26.45849
H         -5.26326      -13.29895       25.18268
H         -3.85495      -14.37872       24.95823
N         -3.06612      -11.76460       23.29996
C         -2.70086      -11.29815       21.96098
C         -1.18131      -11.31548       21.81128
O         -0.50261      -11.64735       22.76982
C         -3.25337       -9.87658       21.73537
C         -4.77904       -9.82790       21.94055
C         -5.39141       -8.48808       21.61571
N         -6.72232       -8.30675       21.77774
O         -4.70235       -7.56650       21.20213
H         -2.65998      -11.27339       24.09306
H         -3.13617      -11.96435       21.18474
H         -3.01990       -9.56507       20.69414
H         -2.76983       -9.16091       22.43715
H         -5.00924      -10.06387       23.00237
H         -5.26239      -10.59048       21.29286
H         -7.31681       -9.07215       22.12925
H         -7.16052       -7.40108       21.55434
N         -0.57209      -10.95894       20.63733
C          0.88428      -10.95123       20.48057
C          1.37713       -9.53157       20.24045
O          1.07000       -8.93925       19.21709
C          1.35143      -11.98045       19.40529
C          0.74253      -11.76372       18.00903
C          2.88681      -12.01266       19.30246
H         -1.15663      -10.67182       19.84063
H          1.35604      -11.29022       21.42321
H          1.02007      -12.98558       19.75031
H          1.04548      -10.79106       17.57319
H          1.08723      -12.56601       17.32136
H         -0.36414      -11.82120       18.04491
H          3.21035      -12.80848       18.59794
H          3.28082      -11.04264       18.93276
H          3.33928      -12.22755       20.29355
N          2.14113       -8.91616       21.19160
C          2.66849       -7.56095       21.05337
C          3.74326       -7.50605       19.97380
O          4.20133       -8.54460       19.51720
C          3.23894       -7.11380       22.42451
C          3.74114       -5.69869       22.51582
N          2.90978       -4.65342       22.30499
O          4.90449       -5.49271       22.82596
H          2.32126       -9.42260       22.06999
H          1.82146       -6.89445       20.77973
H          4.05121       -7.81119       22.71447
H          2.43653       -7.19591       23.17523
H          1.92031       -4.80622       22.06393
H          3.25623       -3.68705       22.39429
N          4.18102       -6.30355       19.50717
C          5.23334       -6.16319       18.50677
C          6.55622       -6.69784       19.02288
O          7.21385       -7.43562       18.30484
C          5.39264       -4.71906       17.97067
C          5.86070       -3.65191       18.93948
C          7.18208       -3.17630       18.86091
C          4.98822       -3.07251       19.87900
C          7.62312       -2.15748       19.70925
C          5.43111       -2.05295       20.72552
C          6.74693       -1.59095       20.64428
O          7.15327       -0.59658       21.45853
H          3.71603       -5.46558       19.86289
H          4.94074       -6.75637       17.61038
H          4.44986       -4.37964       17.49021
H          6.14045       -4.79549       17.14971
H          7.87444       -3.59279       18.13997
H          3.95554       -3.37271       19.94806
H          8.64350       -1.80464       19.63262
H          4.74378       -1.61097       21.43607
H          8.05035       -0.23561       21.42064
N          6.99811       -6.37856       20.27075
C          8.21337       -6.93693       20.85793
C          8.09796       -8.45381       20.96595
O          9.00134       -9.14689       20.51896
C          8.50571       -6.32002       22.24612
C          8.74289       -4.79882       22.15694
C          9.15488       -4.22092       23.47984
O          8.40308       -3.26902       24.06507
O         10.18755       -4.58896       24.01736
H          6.42100       -5.74145       20.83534
H          9.08748       -6.68599       20.21507
H          9.43328       -6.79371       22.64015
H          7.67705       -6.53325       22.95681
H          7.81694       -4.28926       21.82001
H          9.54704       -4.58370       21.42043
N          6.98855       -9.03718       21.51247
C          6.81179      -10.48997       21.63824
C          6.82034      -11.22905       20.29761
O          6.85394      -12.45254       20.31532
C          5.47114      -10.82191       22.33446
C          5.37560      -10.31538       23.78422
C          4.02180      -10.58151       24.39701
O          3.14610      -11.16175       23.77575
O          3.76152      -10.15128       25.64426
H          6.24317       -8.41228       21.85091
H          7.65322      -10.88702       22.24853
H          5.33067      -11.92276       22.35917
H          4.64925      -10.38140       21.72694
H          5.54897       -9.22310       23.82185
H          6.15614      -10.81280       24.39907
N          6.76523      -10.57969       19.10393
C          6.77868      -11.27422       17.83543
H          6.72142      -10.53921       17.00343
H          7.72007      -11.85393       17.72949
H          5.90637      -11.95741       17.76589
H          6.69082       -9.56259       19.08239
Ca         0.20837      -10.74581       25.84191
O         -0.79512      -13.65031       24.78360
H         -1.10583      -13.95408       23.89524
H         -1.07606      -14.37566       25.39228
O          1.15139       -8.44747       24.72338
H          0.38025       -8.10082       24.20900
H          1.08909       -7.99408       25.59916
O          1.59075      -13.56663       23.23524
H          2.06109      -13.23368       22.43243
H          1.33770      -14.49385       23.00257

Ca 1.0



