%chk=holoCaM.loop3.water2.frame341.chk
%nprocshared=20
%mem=10GB
%nosave
#b3lyp/svp scf=(tight,noincore,xqc) Test 
#IOP(5/87=12) Density=Current Pop=(MK,readradii) iop(6/33=2) iop(6/42=6)

holoCaM.loop3.water2.frame341 

   0  1 
C          7.28145       14.37474        0.08713
C          8.65566       14.23860       -0.48427
O          8.80395       13.71084       -1.57819
H          6.52717       13.93713       -0.59984
H          7.23237       13.86188        1.06852
H          7.05349       15.45422        0.22321
N          9.71883       14.74614        0.19371
C         11.05021       14.77086       -0.37875
C         11.63606       13.37815       -0.55361
O         11.79713       12.65050        0.41524
C         11.96708       15.70801        0.42305
C         13.22402       16.04558       -0.31805
O         14.07367       16.92608        0.21126
O         13.46860       15.56792       -1.40907
H          9.55022       15.21701        1.09681
H         10.95047       15.23809       -1.36607
H         12.20494       15.27975        1.41954
H         11.44028       16.67638        0.56862
N         12.00115       12.97412       -1.80183
C         12.60045       11.68657       -2.14139
C         13.88030       11.43684       -1.35598
O         13.98420       10.39763       -0.71963
C         12.84169       11.67051       -3.67437
C         13.59434       10.44372       -4.21606
C         13.66478       10.45912       -5.75999
C         12.33363       10.12231       -6.46814
N         11.95483        8.71916       -6.27822
H         11.85351       13.64593       -2.57228
H         11.88441       10.86720       -1.90720
H         13.42920       12.56916       -3.96760
H         11.84226       11.74766       -4.15056
H         13.14848        9.49746       -3.85350
H         14.63354       10.49796       -3.82491
H         14.42166        9.72281       -6.10432
H         14.01295       11.46290       -6.08780
H         12.46938       10.29652       -7.55851
H         11.51073       10.78845       -6.13410
H         11.77589        8.50631       -5.27248
H         11.07941        8.52361       -6.81498
H         12.71180        8.09481       -6.64219
N         14.89472       12.34228       -1.36651
C         16.19423       12.12776       -0.72586
C         16.46713       13.09251        0.42496
O         17.56060       13.03920        0.97222
C         17.30316       12.15204       -1.80821
C         17.41487       13.42778       -2.60851
O         16.67685       14.50710       -2.29744
O         18.16484       13.46920       -3.56893
H         14.73442       13.21607       -1.87937
H         16.24064       11.11371       -0.27005
H         17.06810       11.33319       -2.52284
H         18.29045       11.92466       -1.35008
N         15.51265       13.94120        0.90937
C         15.72978       14.78387        2.07908
C         16.71627       15.92064        1.87269
O         17.02594       16.58431        2.85201
H         14.56975       13.92679        0.50180
H         16.08274       14.13796        2.91333
H         14.76589       15.23684        2.39677
N         17.24931       16.22214        0.65160
C         18.25649       17.26908        0.46128
C         17.74231       18.68957        0.72941
O         18.54116       19.61471        0.67782
C         18.88703       17.15665       -0.95071
C         18.01402       17.64228       -2.08802
N         18.48442       18.56520       -2.95950
O         16.89122       17.19037       -2.24230
H         16.97748       15.65178       -0.15591
H         19.07636       17.04617        1.17921
H         19.15443       16.09196       -1.13062
H         19.83576       17.73419       -0.96289
H         19.43429       18.95294       -2.86122
H         17.90467       18.88676       -3.74832
N         16.42566       18.94032        0.98797
C         15.84995       20.25151        1.22518
C         14.90284       20.68245        0.11379
O         14.31988       21.74705        0.24904
H         15.76884       18.16472        1.01288
H         16.63875       21.03079        1.30356
H         15.30719       20.22207        2.19480
N         14.77916       19.97222       -1.05243
C         14.12309       20.50861       -2.24600
C         13.29878       19.45908       -2.98022
O         13.79678       18.37204       -3.23087
C         15.22774       20.99938       -3.19788
C         16.02929       22.11890       -2.57422
C         17.37230       21.91878       -2.22040
C         15.43814       23.37112       -2.33188
C         18.11300       22.94670       -1.63465
C         16.18309       24.40318       -1.75246
C         17.52486       24.19282       -1.40184
O         18.25721       25.17714       -0.84346
H         15.33272       19.11431       -1.17505
H         13.47985       21.38288       -2.00522
H         14.79270       21.36500       -4.15364
H         15.88559       20.13606       -3.43600
H         17.84600       20.96579       -2.38486
H         14.40342       23.55042       -2.59643
H         19.14626       22.77226       -1.36253
H         15.71699       25.36438       -1.57675
H         17.89223       26.05696       -0.67337
N         12.05261       19.77465       -3.44352
C         11.23139       18.89267       -4.27599
C         10.98159       19.52300       -5.63727
O         10.58747       20.67701       -5.71218
C          9.90045       18.50044       -3.56891
C          9.07423       19.71210       -3.06276
C         10.23163       17.51773       -2.44630
C          7.77007       19.31638       -2.36474
H         11.68326       20.71354       -3.23705
H         11.76490       17.93757       -4.47778
H          9.28276       17.93154       -4.30214
H          8.81044       20.35497       -3.92751
H          9.66475       20.31205       -2.33991
H         10.85217       17.99360       -1.65882
H          9.31714       17.08434       -1.99392
H         10.79184       16.67484       -2.90012
H          7.97173       18.75497       -1.42878
H          7.21209       20.23251       -2.07942
H          7.13576       18.70149       -3.03671
N         11.15316       18.77207       -6.76638
C         10.94006       19.26475       -8.12273
C          9.68398       18.65346       -8.72906
O          9.01576       17.86749       -8.07547
C         12.18540       18.94154       -8.97390
O         12.36560       17.55260       -9.09890
H         11.41788       17.78369       -6.66269
H         10.79292       20.36582       -8.11645
H         13.08723       19.42124       -8.52733
H         12.08914       19.36623       -9.99407
H         13.04926       17.27869       -8.43324
N          9.30111       18.99724       -9.99389
C          8.11982       18.45893      -10.66699
C          8.19079       16.95247      -10.77844
O          7.20024       16.29219      -10.49780
C          7.98537       19.06249      -12.06809
H          9.88397       19.67426      -10.50771
H          7.20392       18.74231      -10.10095
H          7.07067       18.67023      -12.56366
H          7.89314       20.16691      -11.99492
H          8.86874       18.81359      -12.69373
N          9.34706       16.33887      -11.15414
C          9.50176       14.89055      -11.20005
C          9.21632       14.27489       -9.84114
O          8.37317       13.39320       -9.75461
C         10.92563       14.52462      -11.64186
H         10.16175       16.93106      -11.38117
H          8.79846       14.46833      -11.95240
H         11.68107       14.92757      -10.93303
H         11.04024       13.42073      -11.69447
H         11.12973       14.94579      -12.64915
N          9.89072       14.69628       -8.73248
C          9.70531       14.09839       -7.40905
C          8.30976       14.33955       -6.83566
O          7.98997       13.74052       -5.81784
C         10.79856       14.59973       -6.43033
C         12.19669       14.19721       -6.94776
C         13.35602       14.60250       -6.08755
O         13.22412       15.39992       -5.01617
O         14.46819       14.19111       -6.37486
H         10.58465       15.44790       -8.85211
H          9.83327       12.99743       -7.51665
H         10.64544       14.13024       -5.43231
H         10.71519       15.69746       -6.30925
H         12.39294       14.61341       -7.95495
H         12.21085       13.09001       -7.01924
N          7.42032       15.18460       -7.42744
C          6.07222       15.37652       -6.94114
H          5.51431       14.41721       -6.99021
H          6.08796       15.75262       -5.89768
H          5.54541       16.11858       -7.58070
H          7.69709       15.71896       -8.25311
Ca        14.93501       15.20217       -3.56156
O         17.58489       15.89342       -5.31121
H         18.01695       16.44135       -6.01315
H         17.60185       14.97206       -5.67306
O         14.97754       17.78758       -5.84421
H         15.55160       17.52224       -6.60553
H         15.05001       18.77437       -5.80802

Ca 1.0



