%chk=holoCaM-CaMKII.loop2.water2.frame6.chk
%nprocshared=20
%mem=10GB
%nosave
#b3lyp/svp scf=(tight,noincore,xqc) Test 
#IOP(5/87=12) Density=Current Pop=(MK,readradii) iop(6/33=2) iop(6/42=6)

holoCaM-CaMKII.loop2.water2.frame6 

   -2  1 
C         59.91636       74.90292       15.06438
C         60.58068       75.85633       14.10914
O         61.22016       76.80353       14.54086
H         58.82292       74.87449       14.87367
H         60.32927       73.88157       14.91079
H         60.09343       75.19685       16.12022
N         60.48396       75.63067       12.77263
C         61.16605       76.41946       11.74949
C         60.69829       77.86505       11.69192
O         59.51520       78.10077       11.49077
C         60.95624       75.73912       10.38133
C         61.57014       76.45028        9.20282
O         60.85769       76.73369        8.25301
O         62.88159       76.76978        9.14518
H         59.93865       74.80535       12.47527
H         62.24390       76.38966       11.97467
H         59.86364       75.63174       10.19458
H         61.38721       74.71963       10.42761
N         61.60764       78.88388       11.79244
C         61.27171       80.29511       11.63817
C         62.00128       80.96690       10.46569
O         61.67441       82.11380       10.19275
C         61.61481       81.03462       12.93738
H         62.58996       78.64950       11.97653
H         60.18161       80.40378       11.45173
H         61.33416       82.10740       12.86721
H         61.06773       80.58498       13.79280
H         62.70649       80.96763       13.14230
N         63.01826       80.36849        9.76512
C         63.77829       81.05269        8.70765
C         63.90937       80.24703        7.40502
O         64.57507       80.71909        6.49373
C         65.15691       81.48706        9.25986
C         66.08656       80.38810        9.70130
O         67.29212       80.71467       10.20399
O         65.77381       79.21349        9.61671
H         63.33228       79.43214       10.04622
H         63.27368       82.00384        8.42979
H         64.97980       82.15192       10.13357
H         65.67972       82.08818        8.48455
N         63.27181       79.05700        7.22225
C         63.29294       78.28368        5.98304
C         64.61456       77.62713        5.59676
O         64.62924       76.98167        4.55763
H         62.64782       78.72896        7.96207
H         62.95640       78.93755        5.15039
H         62.55466       77.45751        6.07817
N         65.75534       77.72772        6.33915
C         67.03340       77.13328        5.92244
C         67.08966       75.59575        5.96789
O         68.13859       75.05479        5.64351
C         68.20487       77.75754        6.71587
C         68.20253       77.52706        8.20470
N         69.19506       78.05791        8.95258
O         67.31843       76.87932        8.74396
H         65.73688       78.30652        7.18778
H         67.22306       77.43623        4.86774
H         68.19057       78.85586        6.54273
H         69.16373       77.36897        6.30701
H         69.94540       78.61194        8.51419
H         69.21526       77.91934        9.96981
N         66.01745       74.82057        6.30455
C         66.04079       73.36105        6.25989
C         66.71331       72.69002        7.44755
O         66.71597       71.46744        7.47799
H         65.11571       75.26598        6.50909
H         66.49182       73.02035        5.30168
H         64.98989       72.99955        6.27030
N         67.26149       73.39745        8.47572
C         67.82431       72.78709        9.68178
C         67.10395       73.28772       10.92484
O         66.24429       74.15258       10.82975
C         69.34148       73.11250        9.78220
C         70.14825       72.28378        8.78500
O         69.58566       74.47803        9.55347
H         67.26479       74.42289        8.42449
H         67.69304       71.68220        9.67784
H         69.74908       72.82890       10.77768
H         69.18599       74.97955       10.31023
H         70.01517       71.20180        9.00752
H         69.82935       72.48357        7.74212
H         71.22862       72.52169        8.88993
N         67.45930       72.79795       12.14801
C         66.94211       73.30487       13.41038
C         68.06168       74.10562       14.04398
O         69.15921       73.58734       14.20271
C         66.45250       72.15751       14.34636
C         65.33583       71.32545       13.66444
C         65.94923       72.75156       15.68111
C         64.83309       70.15082       14.51094
H         68.20248       72.08436       12.19844
H         66.07842       73.97971       13.23536
H         67.31187       71.48514       14.56385
H         65.72859       70.90488       12.71451
H         64.47002       71.97564       13.42524
H         65.67052       71.96074       16.40386
H         66.74226       73.34522       16.17741
H         65.06790       73.40398       15.50578
H         65.67274       69.47361       14.77320
H         64.33621       70.49917       15.43949
H         64.07674       69.57708       13.93555
N         67.83902       75.38657       14.44084
C         68.86455       76.25172       15.00632
C         68.72298       76.29719       16.51169
O         67.86416       75.61619       17.04706
C         68.73328       77.65502       14.38182
C         68.84204       77.59915       12.88639
O         69.86334       77.18861       12.35883
O         67.80584       77.99593       12.12260
H         66.88321       75.76086       14.37856
H         69.87967       75.84929       14.79219
H         69.52181       78.33394       14.76705
H         67.74348       78.08412       14.65395
N         69.57135       77.03821       17.27469
C         69.50030       77.05712       18.73061
C         68.16514       77.60419       19.24918
O         67.53370       76.88690       20.01318
C         70.69842       77.81832       19.33163
C         70.69778       77.73599       20.84017
C         70.56673       78.89998       21.61479
C         70.82181       76.49148       21.48655
C         70.55461       78.81905       23.01066
C         70.80935       76.41584       22.88136
C         70.67512       77.57855       23.64320
H         70.31864       77.57283       16.80532
H         69.60028       76.00320       19.07450
H         70.68443       78.87151       18.99559
H         71.64619       77.37345       18.95773
H         70.46732       79.86796       21.13984
H         70.92851       75.57869       20.91405
H         70.44995       79.71872       23.60233
H         70.90329       75.45483       23.37079
H         70.66483       77.51775       24.72349
N         67.64034       78.82689       18.89819
C         66.38053       79.35027       19.42653
C         65.14314       78.62990       18.89995
O         64.04587       79.04907       19.24273
C         66.41022       80.82412       19.01118
C         67.12518       80.76018       17.68304
C         68.25183       79.77730       17.98840
H         66.35316       79.30964       20.53795
H         65.42731       81.34293       19.01471
H         67.08730       81.36691       19.71047
H         66.42881       80.28941       16.95149
H         67.46609       81.73561       17.27629
H         68.58600       79.33468       17.03023
H         69.08604       80.28827       18.51169
N         65.23126       77.51503       18.12435
C         64.08598       76.73307       17.69836
C         63.99772       75.50322       18.58219
O         62.97656       75.30835       19.22558
C         64.24385       76.32762       16.22759
C         64.43629       77.52164       15.27705
C         64.55641       77.05205       13.85446
O         64.76848       77.92099       12.85677
O         64.41786       75.87316       13.57579
H         66.14970       77.14450       17.87275
H         63.14174       77.31383       17.80414
H         63.34628       75.74300       15.92629
H         65.13716       75.67723       16.12129
H         65.36080       78.07314       15.54930
H         63.57018       78.21406       15.35144
N         65.05828       74.65263       18.69256
C         65.09014       73.49953       19.56505
H         65.91664       73.62698       20.29706
H         64.14239       73.36541       20.12466
H         65.28737       72.58839       18.96338
H         65.90949       74.83762       18.15302
Ca        64.30826       76.96862       10.86948
O         64.18527       74.41143        8.75334
H         63.45037       74.36311        8.09193
H         64.36675       73.46911        8.98985
O         63.50650       73.80084       11.58421
H         62.95808       73.03038       11.29378
H         63.36896       73.84436       12.56176

Ca 1.0



