%chk=holoCaM.loop4.water3.frame157.chk
%nprocshared=20
%mem=10GB
%nosave
#b3lyp/svp scf=(tight,noincore,xqc) Test 
#IOP(5/87=12) Density=Current Pop=(MK,readradii) iop(6/33=2) iop(6/42=6)

holoCaM.loop4.water3.frame157 

   -3  1 
C         88.28267      104.46068       -1.24966
C         86.98406      103.82089       -0.87716
O         87.03063      102.77063       -0.25227
H         88.88031      103.76098       -1.86911
H         88.12619      105.40942       -1.79961
H         88.84520      104.68111       -0.31506
N         85.78517      104.42168       -1.16007
C         84.53822      103.90824       -0.61417
C         83.36509      103.93577       -1.60408
O         83.05826      104.98679       -2.14670
C         84.19347      104.71506        0.65979
C         83.21214      103.96520        1.51258
O         82.85425      102.73142        1.11646
O         82.81294      104.42996        2.56689
H         85.78248      105.34403       -1.61977
H         84.71165      102.85912       -0.29515
H         83.82587      105.72867        0.39115
H         85.10780      104.82478        1.28319
N         82.61828      102.80824       -1.80595
C         81.42819      102.70021       -2.65328
C         80.16483      102.40344       -1.81857
O         79.09275      102.75932       -2.29220
C         81.68443      101.60008       -3.74579
C         82.78994      102.08445       -4.72597
C         80.41115      101.19737       -4.52184
C         83.26272      101.01446       -5.71886
H         82.90484      101.96376       -1.31034
H         81.23070      103.66763       -3.16761
H         82.03467      100.68176       -3.22373
H         83.68061      102.40458       -4.14864
H         82.42892      102.97030       -5.29324
H         79.98059      102.06278       -5.06626
H         80.62284      100.38272       -5.24391
H         79.64874      100.77577       -3.83459
H         83.63271      100.11645       -5.18102
H         82.45742      100.71354       -6.41791
H         84.09425      101.42297       -6.33117
N         80.18094      101.69096       -0.64521
C         78.96035      101.24955        0.04702
C         78.80551      101.64097        1.52527
O         77.80731      101.24491        2.11087
C         78.78178       99.72797       -0.15701
C         79.76523       98.72299        0.41650
O         80.85398       99.00878        1.16298
O         79.54622       97.54588        0.18213
H         81.07916      101.35009       -0.30342
H         78.07274      101.70128       -0.44920
H         78.75059       99.55796       -1.25544
H         77.78252       99.45025        0.24344
N         79.68954      102.43411        2.19309
C         79.52429      102.82325        3.59216
C         79.60366      101.70439        4.63860
O         79.42135      102.03077        5.80283
H         80.47571      102.84446        1.67786
H         78.54316      103.33561        3.69656
H         80.31147      103.56415        3.85029
N         79.84020      100.38859        4.34259
C         79.80810       99.33207        5.36607
C         80.89201       99.42743        6.44625
O         80.70269       98.82475        7.49512
C         79.82325       97.91538        4.74091
C         81.03975       97.58655        3.91530
O         81.98251       98.50856        3.66063
O         81.15586       96.47041        3.43692
H         79.96384      100.11517        3.36236
H         78.82831       99.42922        5.88538
H         78.93406       97.79479        4.08704
H         79.74915       97.16909        5.56208
N         82.05737      100.10779        6.25949
C         83.10889      100.22735        7.26626
C         84.44238       99.62130        6.83993
O         85.40042       99.77636        7.58050
H         82.21028      100.56299        5.35647
H         82.81494       99.75061        8.22830
H         83.26274      101.30851        7.46841
N         84.57007       98.87224        5.70316
C         85.80352       98.20326        5.29049
C         86.08529       98.40428        3.80821
O         85.16965       98.31925        3.00564
C         85.67298       96.68719        5.50016
C         85.47466       96.30967        6.97240
C         85.51026       94.81337        7.13953
N         84.60129       94.02252        6.52294
O         86.37718       94.30767        7.83664
H         83.73620       98.68615        5.14762
H         86.67539       98.53572        5.89689
H         86.61783       96.21245        5.14869
H         84.83227       96.29260        4.88815
H         84.50540       96.70339        7.34626
H         86.29422       96.76084        7.57521
H         83.86028       94.42711        5.93275
H         84.64043       92.99877        6.63434
N         87.37068       98.52764        3.36866
C         87.73388       98.52808        1.94978
C         87.41960       97.16384        1.33344
O         87.84653       96.15925        1.88498
C         89.24859       98.84063        1.74829
C         89.60500       98.88532        0.24767
C         89.63800      100.19264        2.37019
H         88.11918       98.56612        4.07434
H         87.18281       99.33731        1.43366
H         89.85754       98.04486        2.23218
H         89.40701       97.91165       -0.24119
H         89.01414       99.67146       -0.27221
H         90.68435       99.10549        0.10937
H         89.46751      100.20643        3.46441
H         90.72035      100.38441        2.20791
H         89.05524      101.01877        1.90933
N         86.76809       97.06754        0.13593
C         86.55176       95.80614       -0.57290
C         87.48222       95.72627       -1.77749
O         88.11251       96.71252       -2.13190
C         85.06377       95.72197       -0.99698
C         84.64762       94.45241       -1.69899
N         84.72277       93.25821       -1.07020
O         84.20548       94.50695       -2.83733
H         86.48698       97.93256       -0.33685
H         86.80613       94.95445        0.09320
H         84.83819       96.58939       -1.65889
H         84.43629       95.80084       -0.09251
H         85.07311       93.19292       -0.10444
H         84.41671       92.39824       -1.54807
N         87.64893       94.54202       -2.43175
C         88.51339       94.38075       -3.60289
C         87.99286       95.11957       -4.82693
O         88.71415       95.19268       -5.81229
C         88.70636       92.87847       -3.91387
C         87.39577       92.15722       -4.16012
C         86.64765       92.37030       -5.33233
C         86.90281       91.26728       -3.19031
C         85.42780       91.71482       -5.52119
C         85.68067       90.61976       -3.37787
C         84.93805       90.84062       -4.54061
O         83.75876       90.20877       -4.70364
H         87.17439       93.71657       -2.04420
H         89.51308       94.79926       -3.34789
H         89.20345       92.44322       -3.01921
H         89.39679       92.72288       -4.77121
H         87.00273       93.03728       -6.10572
H         87.45451       91.09083       -2.27517
H         84.86350       91.88992       -6.42847
H         85.30838       89.95087       -2.61258
H         83.21364       90.33305       -5.49331
N         86.75443       95.68594       -4.84292
C         86.22847       96.45441       -5.95937
C         86.51407       97.92531       -5.71344
O         86.79127       98.65152       -6.65712
C         84.73228       96.12046       -6.13064
C         84.11775       96.72964       -7.39487
C         82.71068       96.23414       -7.58438
O         81.76661       96.49624       -6.66028
O         82.41883       95.58286       -8.57529
H         86.15975       95.61884       -4.00814
H         86.75236       96.15821       -6.89489
H         84.15984       96.44383       -5.23131
H         84.64761       95.01339       -6.21402
H         84.72755       96.42425       -8.27338
H         84.11345       97.83825       -7.33069
N         86.57116       98.40189       -4.43811
C         86.99238       99.74969       -4.07905
C         88.50264       99.93226       -4.25435
O         88.97407      101.04179       -4.04677
C         86.58613      100.02384       -2.61134
C         85.05564       99.87437       -2.44443
C         84.57010       99.91700       -1.03138
O         85.40954      100.14401       -0.01179
O         83.39009       99.71159       -0.80063
H         86.32389       97.76556       -3.67047
H         86.45394      100.48141       -4.72053
H         86.89584      101.04337       -2.29669
H         87.11640       99.29244       -1.96899
H         84.71007       98.90055       -2.83910
H         84.55716      100.67118       -3.02075
N         89.32491       98.89960       -4.62092
C         90.75609       99.03338       -4.81154
H         91.28666       98.34580       -4.11904
H         91.01339       98.74964       -5.85447
H         91.11803      100.06629       -4.63034
H         88.94449       97.95723       -4.77487
Ca        81.88357      100.87103        1.86669
O         83.23707       97.60985        1.06269
H         83.17153       96.88302        1.73027
H         82.64597       97.32025        0.32276
O         85.77669      101.57354        2.72085
H         86.11069      102.40179        3.14596
H         85.71153      101.80854        1.76442
O         83.42701      102.19302        4.07384
H         83.75543      102.40090        4.98291
H         82.46304      102.41647        4.10028

Ca 1.0



