%chk=holoCaM.loop1.water2.frame334.chk
%nprocshared=20
%mem=10GB
%nosave
#b3lyp/svp scf=(tight,noincore,xqc) Test 
#IOP(5/87=12) Density=Current Pop=(MK,readradii) iop(6/33=2) iop(6/42=6)

holoCaM.loop1.water2.frame334 

   0  1 
C         14.41805       37.28012       11.30368
C         14.33456       38.33694       10.23733
O         15.20263       39.19019       10.17290
H         13.53885       36.60013       11.27241
H         15.33919       36.67738       11.17955
H         14.42773       37.76841       12.30168
N         13.29421       38.34413        9.36552
C         13.03681       39.41182        8.39887
C         12.73990       40.69302        9.16482
O         11.84501       40.68443        9.99894
C         11.86519       38.95347        7.50676
C         11.18967       39.99885        6.67800
O         11.80552       40.74866        5.75538
O          9.99280       40.17161        6.83611
H         12.62068       37.56431        9.43175
H         13.91739       39.56788        7.73780
H         11.06760       38.53146        8.15714
H         12.22852       38.13495        6.84637
N         13.47292       41.82741        8.94518
C         13.33031       43.04324        9.74669
C         12.71427       44.20391        8.97277
O         12.48463       45.23935        9.58309
C         14.71462       43.48166       10.28734
C         15.49927       42.40665       11.05722
C         14.75537       41.87549       12.28842
C         15.62971       40.89249       13.08061
N         14.90349       40.36129       14.23289
H         14.18303       41.82163        8.19911
H         12.64782       42.85372       10.60203
H         14.58627       44.36664       10.94816
H         15.35094       43.79098        9.42708
H         16.46071       42.86212       11.38160
H         15.74443       41.57025       10.37380
H         13.82943       41.35497       11.96494
H         14.48115       42.72586       12.94917
H         16.54826       41.41323       13.43156
H         15.94278       40.04834       12.43080
H         15.52486       39.70242       14.75536
H         14.62083       41.14045       14.87051
H         14.05414       39.84166       13.91209
N         12.43194       44.12393        7.64158
C         11.83630       45.21483        6.87095
C         10.54506       44.79312        6.15886
O         10.00196       45.59100        5.40765
C         12.89988       45.91074        5.97787
C         13.79490       45.07602        5.09596
O         13.75482       43.73583        5.09685
O         14.63862       45.63773        4.41757
H         12.65942       43.25741        7.13936
H         11.50349       46.03637        7.54429
H         13.59374       46.44418        6.66560
H         12.39480       46.68577        5.36139
N          9.92288       43.61402        6.45311
C          8.59841       43.24052        5.97329
C          8.52390       42.98418        4.48743
O          7.63386       43.50796        3.83352
H         10.35274       42.96982        7.13132
H          7.84782       44.00191        6.28086
H          8.31511       42.28676        6.46916
N          9.41065       42.13946        3.90134
C          9.34722       41.69112        2.51491
C          9.35271       40.15687        2.41356
O          9.32607       39.64765        1.30196
C         10.49546       42.33169        1.71205
C         11.85156       42.08332        2.30227
O         12.29726       40.82992        2.47636
O         12.55621       43.02414        2.62831
H         10.18489       41.79795        4.47630
H          8.40558       42.03598        2.03475
H         10.32406       43.43072        1.67762
H         10.47212       41.95580        0.66704
N          9.35390       39.35585        3.52030
C          9.31340       37.90282        3.48392
C         10.54225       37.26358        2.87453
O         10.39577       36.20833        2.27628
H          9.33351       39.77536        4.45580
H          8.39631       37.55708        2.95812
H          9.24388       37.52865        4.52907
N         11.79266       37.76642        3.09504
C         13.02587       37.10150        2.64579
C         14.23430       37.54027        3.47835
O         14.12025       38.44348        4.29554
C         13.31505       37.30491        1.12543
C         12.32273       36.62626        0.17134
O         13.44001       38.66816        0.81441
H         11.85656       38.60608        3.68770
H         12.92779       36.01590        2.86872
H         14.28828       36.82237        0.89539
H         12.52501       39.04881        0.76228
H         11.31452       37.07972        0.23785
H         12.66846       36.75657       -0.87578
H         12.26805       35.53828        0.38907
N         15.41961       36.86408        3.36754
C         16.57134       37.10664        4.23259
C         17.81100       37.46359        3.41415
O         18.31269       36.63336        2.66929
C         16.79558       35.84870        5.13090
C         15.59131       35.58261        6.07899
C         18.09950       35.90790        5.93858
C         15.34720       36.66092        7.14535
H         15.48593       36.08320        2.69733
H         16.37501       37.96156        4.90254
H         16.88690       34.96474        4.46035
H         15.76369       34.62112        6.60974
H         14.66426       35.46427        5.47945
H         18.97421       35.94223        5.26183
H         18.11868       36.79552        6.59443
H         18.21063       34.99423        6.55992
H         16.22005       36.76883        7.82088
H         15.11507       37.64299        6.69213
H         14.47876       36.36614        7.76884
N         18.36884       38.70378        3.54762
C         19.63300       39.12923        2.93508
C         20.81957       38.46816        3.63190
O         20.62028       37.67575        4.53304
C         19.80326       40.67310        3.06576
C         18.74438       41.45808        2.29206
O         19.84827       41.06526        4.41493
H         17.86502       39.38062        4.13595
H         19.63449       38.88014        1.85120
H         20.76166       40.98581        2.60551
H         18.92763       41.23553        4.74051
H         18.95518       42.54401        2.38766
H         18.77048       41.18339        1.21718
H         17.73958       41.25285        2.70128
N         22.09895       38.80237        3.30144
C         23.26477       38.37288        4.07304
C         23.20216       38.92548        5.50043
O         23.30341       38.14458        6.43611
C         24.58302       38.82318        3.38695
C         24.77246       38.11884        2.03525
O         24.59250       40.21708        3.20740
H         22.24937       39.42890        2.49899
H         23.29295       37.25998        4.12373
H         25.43001       38.52754        4.04931
H         25.49540       40.46486        2.87816
H         25.74159       38.42129        1.58518
H         24.78577       37.01725        2.17619
H         23.96116       38.38167        1.32570
N         23.04180       40.26359        5.73590
C         23.04630       40.87030        7.07154
C         22.01763       40.23843        8.00175
O         22.38686       39.80836        9.08570
C         22.90306       42.41968        7.00164
C         21.60666       42.95915        6.36686
C         21.55472       44.49174        6.38572
C         20.24611       45.00241        5.75934
N         20.15492       46.45967        5.84691
H         22.92888       40.88161        4.92072
H         24.04624       40.69197        7.52715
H         23.76235       42.81783        6.41871
H         22.98221       42.81882        8.03684
H         20.73218       42.60142        6.94012
H         21.53710       42.61966        5.31505
H         22.41921       44.90819        5.82359
H         21.61128       44.83885        7.44032
H         19.37715       44.55558        6.29249
H         20.19591       44.69133        4.69141
H         19.25501       46.77359        5.41639
H         20.16839       46.75831        6.84947
H         20.95073       46.90471        5.33505
N         20.72005       40.10740        7.62212
C         19.68426       39.46585        8.43040
C         20.09998       38.04304        8.75356
O         20.12596       37.67462        9.91951
C         18.34118       39.50601        7.66381
C         17.81918       40.95474        7.56881
C         16.61268       41.11601        6.69540
O         16.11952       40.16755        6.10859
O         16.08896       42.34497        6.53272
H         20.47247       40.43318        6.68119
H         19.54215       40.01209        9.39022
H         17.57220       38.89620        8.18695
H         18.49457       39.08484        6.64563
H         18.59599       41.62083        7.14917
H         17.56916       41.31313        8.59024
N         20.50120       37.20830        7.76337
C         20.98059       35.86688        8.00310
H         21.86485       35.89684        8.67465
H         20.17901       35.25060        8.45886
H         21.28802       35.40345        7.04030
H         20.49893       37.55813        6.80421
Ca        13.76173       41.49162        5.03919
O         15.57501       40.25994        1.93621
H         14.74461       40.79339        1.89010
H         16.06956       40.51405        1.11732
O         16.43198       43.28212        3.62951
H         15.54767       43.43723        3.21449
H         17.05172       43.83889        3.09565

Ca 1.0



