%chk=holoCaM.loop2.water2.frame80.chk
%nprocshared=20
%mem=10GB
%nosave
#b3lyp/svp scf=(tight,noincore,xqc) Test 
#IOP(5/87=12) Density=Current Pop=(MK,readradii) iop(6/33=2) iop(6/42=6)

holoCaM.loop2.water2.frame80 

   -2  1 
C         -7.37476       34.06198       97.47177
C         -7.88178       34.82476       96.28168
O         -8.05296       34.24749       95.22026
H         -6.42347       34.50438       97.83149
H         -8.12894       34.12256       98.28783
H         -7.21579       32.99126       97.22538
N         -8.20129       36.13725       96.42153
C         -8.86553       36.92924       95.38601
C         -7.90751       37.31435       94.25029
O         -6.70162       37.26430       94.44909
C         -9.40952       38.20497       96.09186
C        -10.43815       39.03499       95.38700
O        -10.89548       40.14743       95.99084
O        -10.92580       38.69126       94.32885
H         -8.06650       36.54944       97.35921
H         -9.71939       36.32711       95.00691
H         -8.54665       38.84976       96.36625
H         -9.91269       37.89682       97.03346
N         -8.38851       37.81897       93.07271
C         -7.56329       38.48832       92.06702
C         -8.45650       39.27344       91.09776
O         -8.33608       39.11805       89.89116
C         -6.63918       37.49650       91.33967
H         -9.40149       37.81124       92.92021
H         -6.94274       39.25092       92.58636
H         -5.96438       36.97797       92.04976
H         -7.23959       36.73374       90.79873
H         -6.00336       38.03706       90.60508
N         -9.39246       40.13912       91.60248
C        -10.32732       40.95589       90.80325
C        -11.32887       41.80737       91.62686
O        -12.01057       42.60576       90.99793
C        -11.11219       40.10390       89.76777
C        -11.68834       38.87584       90.39265
O        -12.56578       38.95853       91.40159
O        -11.29358       37.77640       90.03591
H         -9.41340       40.19654       92.62237
H         -9.72049       41.68718       90.22614
H        -10.42414       39.78207       88.95985
H        -11.90487       40.70151       89.26890
N        -11.48710       41.74309       92.98813
C        -12.37138       42.63255       93.73613
C        -13.86387       42.44995       93.49621
O        -14.62121       43.23654       94.04703
H        -10.93403       41.10414       93.55897
H        -12.08853       43.68081       93.50043
H        -12.20206       42.47969       94.82536
N        -14.37438       41.45909       92.70937
C        -15.80281       41.31075       92.41691
C        -16.68156       40.91471       93.61647
O        -17.87990       40.76656       93.41801
C        -16.01935       40.33594       91.23077
C        -15.65557       38.89279       91.46816
N        -15.88183       37.98403       90.49392
O        -15.16470       38.53214       92.52469
H        -13.71979       40.82570       92.24460
H        -16.16862       42.29313       92.04448
H        -15.43332       40.69869       90.35767
H        -17.09369       40.36714       90.94893
H        -16.29728       38.26677       89.59463
H        -15.65305       36.99385       90.64120
N        -16.19235       40.76454       94.88274
C        -17.03195       40.47306       96.03748
C        -17.44014       39.01838       96.18525
O        -18.09608       38.72131       97.17435
H        -15.20436       40.95509       95.07598
H        -17.92286       41.13978       96.03406
H        -16.44954       40.71178       96.95319
N        -17.08900       38.05397       95.28558
C        -17.41495       36.63643       95.45364
C        -16.15967       35.77529       95.37147
O        -15.08664       36.28905       95.09064
C        -18.43315       36.18004       94.37283
C        -19.74235       36.97622       94.42853
O        -17.87523       36.22155       93.08158
H        -16.57082       38.32802       94.44598
H        -17.88013       36.46341       96.44916
H        -18.71116       35.12378       94.57390
H        -17.72115       37.17068       92.84257
H        -19.56408       38.04891       94.20477
H        -20.45785       36.57193       93.68143
H        -20.19924       36.88890       95.43746
N        -16.25019       34.42767       95.54970
C        -15.15767       33.48608       95.33666
C        -15.48002       32.69239       94.08345
O        -16.57213       32.15439       93.95969
C        -14.90999       32.61639       96.61092
C        -14.15845       33.48954       97.65716
C        -14.09439       31.34669       96.28886
C        -13.81850       32.78766       98.97291
H        -17.17084       34.02461       95.78192
H        -14.21157       34.01668       95.12261
H        -15.88735       32.26960       97.01253
H        -14.76821       34.38795       97.89110
H        -13.19417       33.83063       97.21772
H        -13.09094       31.61087       95.91202
H        -13.98339       30.70333       97.18430
H        -14.61782       30.71866       95.53808
H        -13.29047       33.50350       99.63894
H        -14.74043       32.43562       99.47706
H        -13.12701       31.93486       98.81151
N        -14.53373       32.58219       93.10809
C        -14.73634       31.93393       91.82210
C        -14.10577       30.55769       91.83532
O        -13.56743       30.15772       92.85362
C        -14.11482       32.80978       90.70926
C        -14.70730       34.18968       90.67089
O        -14.58981       35.00825       91.73437
O        -15.27323       34.58526       89.66455
H        -13.59461       32.96072       93.28991
H        -15.82173       31.79393       91.62238
H        -14.26588       32.32985       89.71963
H        -13.01897       32.90712       90.87760
N        -14.17603       29.75061       90.74341
C        -13.65378       28.38969       90.72088
C        -12.14843       28.30484       90.98766
O        -11.79381       27.57272       91.90090
C        -14.04731       27.68697       89.40533
C        -13.58264       26.24843       89.35617
C        -13.94692       25.33537       90.36493
C        -12.77848       25.80529       88.29264
C        -13.50157       24.01218       90.31462
C        -12.34630       24.47680       88.24035
C        -12.70368       23.58234       89.25240
H        -14.66374       30.10376       89.90532
H        -14.16809       27.83326       91.53496
H        -13.64842       28.25378       88.53822
H        -15.15633       27.69647       89.32591
H        -14.56709       25.64229       91.19658
H        -12.49068       26.48483       87.50017
H        -13.77680       23.31994       91.09998
H        -11.73279       24.14108       87.41481
H        -12.36393       22.55580       89.21314
N        -11.19267       28.98867       90.27962
C         -9.76105       28.85677       90.54193
C         -9.39745       29.30536       91.94600
O         -8.48897       28.73260       92.53198
C         -9.11307       29.71678       89.44782
C        -10.16034       30.77569       89.18341
C        -11.44961       29.95739       89.23105
H         -9.40175       27.81181       90.41112
H         -8.08836       30.08547       89.67242
H         -9.06324       29.10496       88.51889
H        -10.14935       31.48316       90.04067
H        -10.02190       31.36579       88.25273
H        -12.27745       30.65810       89.44794
H        -11.62160       29.41299       88.27784
N        -10.08796       30.29786       92.56142
C         -9.79970       30.76371       93.91179
C        -10.04245       29.64631       94.90975
O         -9.14344       29.31811       95.67066
C        -10.66471       31.99270       94.24194
C        -10.39467       33.13347       93.24628
C        -11.20469       34.35421       93.50341
O        -11.92086       34.46668       94.48226
O        -11.15903       35.32680       92.58951
H        -10.86797       30.72635       92.04682
H         -8.73830       31.09485       93.97550
H        -10.43630       32.34022       95.27400
H        -11.73562       31.71800       94.17825
H        -10.66125       32.81818       92.22018
H         -9.32196       33.41123       93.24071
N        -11.23415       28.99062       94.93240
C        -11.51404       27.89382       95.82983
H        -12.53157       27.49427       95.62543
H        -10.77896       27.07683       95.67037
H        -11.47224       28.24321       96.88178
H        -11.96441       29.25760       94.26725
Ca       -12.47076       37.11448       92.62515
O        -12.15012       36.53216       96.65967
H        -12.92714       36.02860       96.31687
H        -12.42779       36.82533       97.56270
O        -13.69855       38.81048       94.98490
H        -13.87080       38.68514       95.95104
H        -13.29604       39.71171       94.91795

Ca 1.0



