%chk=holoCaM-CaMKII.loop1.water2.frame470.chk
%nprocshared=20
%mem=10GB
%nosave
#b3lyp/svp scf=(tight,noincore,xqc) Test 
#IOP(5/87=12) Density=Current Pop=(MK,readradii) iop(6/33=2) iop(6/42=6)

holoCaM-CaMKII.loop1.water2.frame470 

   0  1 
C         65.64022       56.89418       70.72805
C         65.44500       58.30293       71.20835
O         64.45513       58.90039       70.83166
H         66.56091       56.43994       71.14969
H         64.76972       56.27554       71.03304
H         65.71868       56.88942       69.62067
N         66.33954       58.87415       72.06588
C         66.26280       60.22832       72.63140
C         66.49370       61.31802       71.57272
O         67.55888       61.91909       71.54860
C         67.28595       60.30114       73.79968
C         67.45780       61.62509       74.50807
O         66.42524       62.29051       75.06150
O         68.58432       62.07182       74.64901
H         67.11645       58.27098       72.37855
H         65.26750       60.35622       73.08258
H         68.28693       59.98816       73.42798
H         66.96589       59.55837       74.56313
N         65.52734       61.62122       70.65589
C         65.72334       62.55156       69.54588
C         65.80117       64.02378       69.93772
O         66.12695       64.81216       69.06044
C         64.63783       62.36019       68.45455
C         63.19216       62.66324       68.91391
C         62.16312       62.46534       67.78722
C         62.25796       63.53987       66.69042
N         61.26544       63.30496       65.64231
H         64.64163       61.11870       70.70709
H         66.68913       62.27718       69.06509
H         64.68065       61.30791       68.09629
H         64.90623       63.01305       67.59955
H         63.10529       63.69533       69.31632
H         62.91558       61.95991       69.72325
H         61.14574       62.52746       68.23218
H         62.28423       61.44951       67.35046
H         63.26446       63.54613       66.22465
H         62.07873       64.53836       67.14881
H         60.30167       63.29037       66.04798
H         61.32455       64.07478       64.93701
H         61.46205       62.39506       65.16512
N         65.50039       64.48610       71.18831
C         65.57149       65.90987       71.53971
C         66.64352       66.20014       72.59130
O         66.83355       67.36159       72.92509
C         64.17126       66.46089       71.89293
C         63.51389       65.87150       73.10786
O         64.13390       64.94527       73.85692
O         62.39658       66.24732       73.42484
H         65.20226       63.81500       71.90952
H         65.88698       66.50278       70.65359
H         63.50493       66.28325       71.01940
H         64.24430       67.56073       72.04099
N         67.45418       65.21428       73.07355
C         68.63949       65.45889       73.87822
C         68.37647       65.97111       75.27191
O         68.93492       66.99815       75.63072
H         67.30851       64.24212       72.77311
H         69.31523       66.15290       73.33082
H         69.18574       64.50031       73.99324
N         67.58989       65.27013       76.13639
C         67.44106       65.61488       77.54883
C         67.82815       64.46897       78.49552
O         67.93280       64.73722       79.68441
C         66.03011       66.17181       77.82430
C         64.91237       65.30517       77.31761
O         64.13202       65.74558       76.49006
O         64.74521       64.05781       77.77779
H         67.08090       64.45858       75.77216
H         68.14700       66.43500       77.80597
H         65.95083       67.15409       77.30908
H         65.90067       66.35231       78.91294
N         68.06461       63.18903       78.07319
C         68.53027       62.11940       78.95231
C         67.47281       61.07197       79.24020
O         67.80435       60.07346       79.86375
H         67.91797       62.93565       77.09023
H         68.86944       62.51070       79.93492
H         69.40913       61.64111       78.46781
N         66.17129       61.25857       78.88564
C         65.09134       60.33011       79.19671
C         64.36622       59.92140       77.92830
O         64.33620       60.67802       76.96717
C         64.10916       60.96760       80.21404
C         64.75344       61.09409       81.59767
O         63.70135       62.24351       79.79220
H         65.91438       62.12390       78.40432
H         65.48884       59.39908       79.65906
H         63.21843       60.31126       80.35259
H         63.02665       62.11190       79.07934
H         65.02699       60.08725       81.98120
H         65.66522       61.72648       81.56157
H         64.03331       61.54962       82.31087
N         63.74899       58.70927       77.87482
C         63.05092       58.19066       76.70510
C         61.58679       58.02024       77.07264
O         61.29431       57.42044       78.09866
C         63.68938       56.84174       76.25459
C         65.20498       57.02145       75.96595
C         62.96089       56.29682       75.00582
C         65.93486       55.70490       75.68469
H         63.78399       58.10526       78.71148
H         63.13246       58.89435       75.84655
H         63.57656       56.10967       77.08499
H         65.69982       57.46232       76.85708
H         65.35178       57.71676       75.11062
H         63.35608       55.30848       74.70052
H         61.88260       56.14731       75.21038
H         63.06562       57.00307       74.15312
H         65.56560       55.21469       74.76244
H         67.01795       55.90603       75.54504
H         65.81480       55.01143       76.54463
N         60.61056       58.48873       76.24641
C         59.18459       58.36397       76.52138
C         58.59296       57.26873       75.65648
O         59.30197       56.68346       74.85460
C         58.45303       59.71468       76.26693
C         58.98982       60.86591       77.13027
O         58.47727       60.05680       74.90119
H         60.88920       58.87988       75.34189
H         59.02361       58.06326       77.57971
H         57.38478       59.59809       76.54522
H         59.34637       60.48544       74.69854
H         58.88597       60.61956       78.20691
H         60.05815       61.06960       76.90431
H         58.40614       61.78847       76.91887
N         57.28429       56.92654       75.78128
C         56.63622       55.91724       74.94674
C         56.67291       56.33518       73.48399
O         57.07115       55.54096       72.64408
C         55.17318       55.68221       75.39843
C         55.11259       55.08252       76.81040
O         54.44808       56.88495       75.35895
H         56.72514       57.41779       76.49408
H         57.16526       54.94217       75.05147
H         54.72115       54.94463       74.69397
H         53.48583       56.64233       75.35050
H         54.05652       54.88559       77.08983
H         55.66654       54.12001       76.84083
H         55.54929       55.76885       77.56497
N         56.29543       57.59354       73.12460
C         56.27126       58.09748       71.75279
C         57.60880       57.90410       71.06512
O         57.64890       57.31759       69.99240
C         55.86324       59.58720       71.78632
C         55.71736       60.22214       70.39785
C         55.12333       61.63155       70.52693
C         54.91618       62.28531       69.15652
N         54.25005       63.58048       69.29629
H         56.02434       58.23980       73.88192
H         55.49699       57.54152       71.17866
H         56.59622       60.17585       72.38339
H         54.87713       59.64293       72.29847
H         55.02781       59.60115       69.78616
H         56.70754       60.26648       69.89280
H         55.78987       62.27201       71.14629
H         54.13623       61.55249       71.03375
H         54.28577       61.62414       68.52136
H         55.90063       62.42191       68.65633
H         53.30786       63.45119       69.73319
H         54.82527       64.22377       69.88695
H         54.12379       64.00603       68.34987
N         58.74934       58.34834       71.65033
C         60.07764       58.18757       71.06749
C         60.37855       56.72287       70.78678
O         60.68326       56.39502       69.64791
C         61.12462       58.80928       72.00828
C         60.96916       60.34388       72.05396
C         61.92552       60.94699       73.02771
O         62.91962       61.73445       72.60917
O         61.84342       60.69099       74.21450
H         58.66076       58.80084       72.57206
H         60.13134       58.73055       70.09657
H         62.14261       58.57697       71.63791
H         61.02180       58.36137       73.02076
H         59.94542       60.65114       72.34704
H         61.17198       60.74605       71.03809
N         60.27653       55.77917       71.75888
C         60.50500       54.37383       71.49963
H         61.55347       54.21095       71.17344
H         60.31872       53.78268       72.42169
H         59.81002       54.01626       70.70898
H         59.99847       56.05934       72.70352
Ca        64.35700       62.17949       74.25714
O         61.57779       63.67087       77.55032
H         60.62553       63.74959       77.80856
H         61.97201       64.54573       77.79253
O         60.65356       63.63291       74.66644
H         59.94222       63.17784       74.14971
H         60.17268       64.30770       75.20844

Ca 1.0



