%chk=holoCaM-CaMKII.loop3.water2.frame108.chk
%nprocshared=20
%mem=10GB
%nosave
#b3lyp/svp scf=(tight,noincore,xqc) Test 
#IOP(5/87=12) Density=Current Pop=(MK,readradii) iop(6/33=2) iop(6/42=6)

holoCaM-CaMKII.loop3.water2.frame108 

   0  1 
C         31.55807       27.56517       69.69561
C         32.61014       27.32794       70.73878
O         33.63000       26.72993       70.42710
H         30.67381       28.08541       70.12219
H         31.97200       28.18041       68.87167
H         31.21965       26.58698       69.29239
N         32.41839       27.75865       72.01586
C         33.34912       27.47994       73.10346
C         33.47237       25.96923       73.27695
O         32.48040       25.29793       73.52382
C         32.88219       28.23359       74.36209
C         33.55749       27.79454       75.61089
O         32.80591       27.41504       76.65212
O         34.76746       27.78458       75.70188
H         31.55414       28.28290       72.22500
H         34.35093       27.88928       72.84383
H         31.79197       28.09765       74.51941
H         33.07855       29.31779       74.20377
N         34.68158       25.37567       73.05777
C         34.85450       23.94338       72.82693
C         35.12845       23.15471       74.10981
O         35.11450       21.93338       74.06301
C         36.01552       23.79292       71.81104
C         36.15085       22.42465       71.14207
C         37.36578       22.42770       70.19973
C         37.54022       21.06761       69.51633
N         38.77867       21.02586       68.73875
H         35.46364       25.99513       72.80714
H         33.92428       23.56450       72.34984
H         36.96581       24.06625       72.32311
H         35.84985       24.52207       70.98567
H         35.22395       22.20868       70.56607
H         36.29853       21.63583       71.90552
H         38.27465       22.64761       70.80176
H         37.25872       23.22031       69.42409
H         36.67046       20.86949       68.85029
H         37.58001       20.27256       70.29235
H         38.75305       21.73391       67.96979
H         39.59776       21.21239       69.36283
H         38.88820       20.07225       68.32430
N         35.43297       23.78688       75.27818
C         35.76167       23.10421       76.53285
C         34.87856       23.57865       77.68499
O         35.05588       23.09782       78.79621
C         37.26576       23.29940       76.85919
C         37.65270       24.75308       77.04601
O         38.12925       25.11932       78.10746
O         37.43064       25.63522       76.03487
H         35.47212       24.81106       75.26595
H         35.60046       22.00809       76.43083
H         37.86490       22.86849       76.02801
H         37.51460       22.71040       77.77441
N         33.89827       24.50748       77.49898
C         33.03726       24.99198       78.55783
C         33.79542       25.75226       79.61827
O         33.54404       25.49847       80.78736
H         33.71831       24.89252       76.56290
H         32.45731       24.15591       79.00397
H         32.28744       25.67775       78.12171
N         34.70086       26.72839       79.29583
C         35.34737       27.56448       80.31227
C         34.89526       29.01647       80.19675
O         35.21429       29.80065       81.07865
C         36.88607       27.38386       80.29138
C         37.60507       28.18683       79.23948
N         38.74466       28.86074       79.53268
O         37.16326       28.22263       78.11010
H         34.91804       26.89172       78.30102
H         35.01727       27.21679       81.31212
H         37.09589       26.30411       80.14230
H         37.31461       27.66313       81.27618
H         39.15911       28.81936       80.47498
H         39.23612       29.40419       78.80612
N         34.13532       29.43917       79.14087
C         33.57900       30.76703       79.00635
C         34.17326       31.52390       77.84473
O         33.69607       32.62369       77.59952
H         33.90953       28.80078       78.37253
H         33.73307       31.37354       79.92395
H         32.48264       30.66008       78.85163
N         35.25434       31.06035       77.13576
C         35.92236       31.87326       76.12935
C         36.15627       31.07330       74.80493
O         37.25121       30.19692       74.98364
C         37.25181       32.43672       76.70399
C         37.08689       33.03304       78.08854
C         36.85872       34.40557       78.28345
C         37.16770       32.19061       79.21223
C         36.70797       34.91796       79.58093
C         37.02226       32.70215       80.50209
C         36.79009       34.06533       80.69381
O         36.64820       34.54034       81.94827
H         35.69048       30.16543       77.38818
H         35.28385       32.75636       75.90255
H         37.66799       33.19130       76.00125
H         38.01703       31.63554       76.78755
H         36.79059       35.07633       77.43680
H         37.34466       31.13249       79.08734
H         36.52720       35.97610       79.72241
H         37.08966       32.03578       81.35333
H         36.48336       35.47564       82.13291
N         36.52039       32.03576       73.74486
C         36.66482       31.50368       72.37364
C         37.96402       32.03266       71.80343
O         38.22622       33.22437       71.89352
C         35.47751       31.90500       71.43226
C         34.16411       31.25154       71.92784
C         35.77712       31.50874       69.96368
C         32.96578       31.47481       71.00028
H         35.95383       32.91633       73.75482
H         36.71939       30.39128       72.38453
H         35.35819       33.01212       71.43960
H         33.91723       31.67021       72.92653
H         34.30489       30.15573       72.03112
H         36.69165       32.01378       69.59137
H         35.90097       30.41046       69.86029
H         34.97794       31.85990       69.28091
H         33.11094       30.94207       70.03601
H         32.05131       31.05140       71.46353
H         32.81335       32.55707       70.80691
N         38.78391       31.18832       71.11895
C         40.02591       31.59436       70.47668
C         39.92984       31.41565       68.96672
O         38.91325       30.94874       68.47952
C         41.16249       30.75026       71.07093
O         40.93285       29.39047       70.81809
H         38.49641       30.20421       71.01787
H         40.23789       32.66721       70.67310
H         41.17743       30.93026       72.17034
H         42.13981       31.04698       70.63763
H         41.52600       28.87965       71.42655
N         40.95924       31.78185       68.15325
C         40.94467       31.55646       66.70878
C         40.90024       30.06520       66.41333
O         40.11973       29.64169       65.57261
C         42.17740       32.19138       66.05312
H         41.79032       32.22009       68.57961
H         40.06218       32.05926       66.25225
H         43.11948       31.75187       66.44133
H         42.13813       32.04975       64.95062
H         42.18150       33.28565       66.25217
N         41.69931       29.20874       67.11120
C         41.72087       27.76196       66.91720
C         40.35489       27.12931       67.14723
O         39.87351       26.43924       66.25967
C         42.75397       27.13090       67.86025
H         42.32088       29.61176       67.83005
H         42.04995       27.54234       65.87699
H         43.75765       27.56280       67.65595
H         42.49716       27.32771       68.92355
H         42.80858       26.03362       67.69840
N         39.67338       27.32007       68.31356
C         38.36913       26.71636       68.59374
C         37.35265       27.10775       67.53733
O         36.80323       26.22060       66.89910
C         37.86355       27.11086       69.99984
C         38.71327       26.46052       71.10782
C         38.24563       26.80238       72.49385
O         37.33698       27.59664       72.67930
O         38.84514       26.22020       73.54920
H         40.10172       27.92804       69.02320
H         38.46536       25.60718       68.57327
H         36.82010       26.74562       70.12723
H         37.85423       28.21594       70.10273
H         39.77700       26.76300       71.02486
H         38.65065       25.35783       70.98816
N         37.06943       28.41352       67.28419
C         36.14174       28.84878       66.25963
H         35.33949       29.45952       66.72254
H         36.68449       29.47012       65.51606
H         35.67227       27.99782       65.72254
H         37.54643       29.13863       67.82891
Ca        37.36207       27.91485       75.55949
O         40.02329       27.22830       76.64976
H         40.96831       27.41723       76.86856
H         39.62706       26.96196       77.51438
O         39.69351       29.42977       74.61284
H         40.00246       30.36411       74.72060
H         40.20677       29.06792       73.85048

Ca 1.0



