%chk=holoCaM.loop1.water2.frame330.chk
%nprocshared=20
%mem=10GB
%nosave
#b3lyp/svp scf=(tight,noincore,xqc) Test 
#IOP(5/87=12) Density=Current Pop=(MK,readradii) iop(6/33=2) iop(6/42=6)

holoCaM.loop1.water2.frame330 

   0  1 
C         -4.79832       52.56063      -11.92041
C         -5.04647       52.40464      -13.38771
O         -4.63691       53.25612      -14.16460
H         -5.76963       52.59445      -11.38437
H         -4.20782       51.69488      -11.55220
H         -4.23549       53.49482      -11.71413
N         -5.70845       51.30892      -13.84290
C         -5.95507       51.07375      -15.25548
C         -6.87072       52.13218      -15.83655
O         -7.89108       52.42974      -15.23054
C         -6.51642       49.66678      -15.47069
C         -6.54162       49.36367      -16.92891
O         -5.45408       49.65744      -17.66506
O         -7.52404       48.86354      -17.44352
H         -6.01249       50.59957      -13.15645
H         -4.96877       51.10334      -15.77133
H         -7.51210       49.51415      -14.99812
H         -5.79938       48.94937      -15.01538
N         -6.55340       52.74439      -17.01645
C         -7.26770       53.90675      -17.53176
C         -8.04097       53.63531      -18.82046
O         -8.90006       54.44408      -19.14294
C         -6.20970       55.00985      -17.75351
C         -6.72913       56.42009      -18.05723
C         -7.44406       57.03419      -16.84300
C         -7.85312       58.49997      -17.05377
N         -6.69856       59.37771      -17.26509
H         -5.72664       52.41515      -17.53505
H         -8.00964       54.22597      -16.77101
H         -5.55397       54.68450      -18.59308
H         -5.56605       55.08328      -16.84843
H         -7.38265       56.43038      -18.95408
H         -5.82899       57.02465      -18.28821
H         -6.77519       56.98158      -15.95560
H         -8.36196       56.45140      -16.62071
H         -8.38856       58.83273      -16.13699
H         -8.55416       58.58303      -17.91272
H         -7.02438       60.37058      -17.27518
H         -6.00445       59.25968      -16.49120
H         -6.24485       59.18178      -18.18509
N         -7.79137       52.55556      -19.62071
C         -8.52241       52.29464      -20.86643
C         -9.26923       50.95508      -20.84328
O         -9.90327       50.61776      -21.83314
C         -7.59545       52.48872      -22.08787
C         -6.40300       51.58027      -22.18282
O         -5.62625       51.71754      -23.11452
O         -6.16957       50.62613      -21.26483
H         -7.03842       51.90633      -19.35702
H         -9.31933       53.05715      -21.00988
H         -7.21987       53.53653      -22.06035
H         -8.19572       52.37549      -23.01719
N         -9.34057       50.20663      -19.70540
C        -10.22845       49.06725      -19.51884
C         -9.85725       47.79768      -20.25134
O        -10.71513       47.21544      -20.89873
H         -8.84697       50.52996      -18.86325
H        -11.27437       49.36487      -19.75081
H        -10.20079       48.80024      -18.44024
N         -8.61739       47.26051      -20.11088
C         -8.24260       45.91567      -20.54740
C         -7.63137       45.11805      -19.37907
O         -7.16348       44.01241      -19.61148
C         -7.35849       45.99195      -21.81807
C         -6.25105       46.97630      -21.68392
O         -5.33440       46.79177      -20.74006
O         -6.24601       48.00109      -22.34608
H         -7.89776       47.82201      -19.63409
H         -9.13196       45.33033      -20.86815
H         -8.00660       46.33709      -22.65199
H         -6.96233       44.98908      -22.08771
N         -7.68297       45.57020      -18.08403
C         -7.22504       44.80047      -16.93236
C         -5.72190       44.66302      -16.80543
O         -5.29693       44.00730      -15.86209
H         -8.15509       46.45642      -17.86785
H         -7.69902       43.79542      -16.95528
H         -7.56931       45.30859      -16.00357
N         -4.85111       45.25037      -17.67432
C         -3.39881       45.14216      -17.55780
C         -2.77225       46.51701      -17.37393
O         -3.48963       47.50928      -17.37060
C         -2.82251       44.39303      -18.78436
C         -3.32670       42.94034      -18.84881
O         -3.10646       45.07755      -19.97839
H         -5.22334       45.80951      -18.45206
H         -3.12126       44.55663      -16.65274
H         -1.71843       44.33131      -18.68943
H         -4.00422       44.79722      -20.29369
H         -2.87990       42.42922      -19.72750
H         -3.03364       42.39111      -17.92971
H         -4.43318       42.90561      -18.94684
N         -1.43747       46.64435      -17.13518
C         -0.78075       47.91430      -16.83667
C          0.38095       48.13591      -17.79388
O          1.26018       47.28756      -17.88512
C         -0.32151       47.91401      -15.34374
C         -1.52872       47.71061      -14.38082
C          0.46568       49.18247      -14.96402
C         -2.51254       48.89015      -14.30039
H         -0.86239       45.78759      -17.08510
H         -1.48318       48.76146      -16.95588
H          0.36150       47.04642      -15.20523
H         -1.16164       47.51350      -13.35045
H         -2.08329       46.80369      -14.69646
H          0.78155       49.13586      -13.90063
H          1.38402       49.26930      -15.57682
H         -0.14436       50.09661      -15.11537
H         -2.05292       49.74348      -13.75812
H         -2.84597       49.23824      -15.29641
H         -3.41598       48.57695      -13.73664
N          0.48202       49.31198      -18.47373
C          1.63568       49.70502      -19.28076
C          2.49591       50.66041      -18.46988
O          2.15868       50.93219      -17.32909
C          1.17249       50.37713      -20.60477
C          0.48716       49.39923      -21.56255
O          0.35123       51.49057      -20.34008
H         -0.23729       50.02848      -18.29473
H          2.27876       48.82881      -19.51833
H          2.05890       50.74557      -21.16161
H         -0.58380       51.18218      -20.21396
H          1.17569       48.56814      -21.82286
H         -0.42073       48.98606      -21.09643
H          0.19903       49.92779      -22.49727
N          3.64111       51.19308      -18.97669
C          4.45596       52.17235      -18.25300
C          3.65874       53.44846      -18.00599
O          3.61979       53.91532      -16.87734
C          5.77116       52.48333      -19.00621
C          6.67815       51.24421      -19.05792
O          5.50006       52.94190      -20.30562
H          3.93553       50.90219      -19.92155
H          4.75614       51.75381      -17.26453
H          6.30789       53.27512      -18.43265
H          6.35168       53.30274      -20.66626
H          6.20024       50.41465      -19.61861
H          7.63844       51.49763      -19.55350
H          6.90470       50.89429      -18.02742
N          2.95590       54.03369      -19.01860
C          2.11661       55.22955      -18.86104
C          0.99176       55.09289      -17.81989
O          0.34966       56.09661      -17.54229
C          1.52925       55.66361      -20.23326
C          0.64218       54.58383      -20.88444
C          0.09385       55.00944      -22.24855
C         -0.67401       53.84432      -22.89604
N         -1.20826       54.22223      -24.20277
H          3.04091       53.60120      -19.94682
H          2.77787       56.04976      -18.50406
H          2.37400       55.88734      -20.92084
H          0.94048       56.59851      -20.10538
H         -0.20645       54.33839      -20.21669
H          1.24130       53.67174      -21.05308
H          0.93862       55.29228      -22.91406
H         -0.57665       55.88689      -22.12273
H         -1.51074       53.52981      -22.23361
H          0.01321       52.97664      -23.02375
H         -1.69050       53.39593      -24.62538
H         -1.89861       54.99997      -24.09487
H         -0.43227       54.52071      -24.83741
N          0.71059       53.91554      -17.18895
C         -0.29542       53.75396      -16.13906
C          0.33439       53.38026      -14.79898
O         -0.28766       53.65420      -13.78200
C         -1.29811       52.66045      -16.54934
C         -2.12784       53.07536      -17.77184
C         -2.99625       51.96396      -18.28724
O         -2.96250       50.74070      -17.72736
O         -3.72376       52.16425      -19.24616
H          1.22425       53.08078      -17.46915
H         -0.84651       54.70607      -15.97173
H         -1.99770       52.43917      -15.71223
H         -0.72300       51.73662      -16.77316
H         -1.45845       53.37690      -18.59829
H         -2.76745       53.94019      -17.49002
N          1.53493       52.73692      -14.70714
C          2.15806       52.35776      -13.45566
H          3.16295       52.82605      -13.39394
H          1.56658       52.67167      -12.57150
H          2.28092       51.25438      -13.42586
H          2.04857       52.48136      -15.55170
Ca        -4.90366       48.54605      -19.48764
O         -2.92325       50.65540      -21.74674
H         -3.53465       50.12249      -22.31420
H         -2.33845       51.12910      -22.38956
O         -2.50663       47.73524      -20.75686
H         -2.27829       47.41147      -21.66392
H         -1.81464       47.34495      -20.16568

Ca 1.0



