%chk=holoCaM-CaMKII.loop2.water2.frame22.chk
%nprocshared=20
%mem=10GB
%nosave
#b3lyp/svp scf=(tight,noincore,xqc) Test 
#IOP(5/87=12) Density=Current Pop=(MK,readradii) iop(6/33=2) iop(6/42=6)

holoCaM-CaMKII.loop2.water2.frame22 

   -2  1 
C         45.76004       50.19405       14.63955
C         46.40555       49.08027       13.86153
O         46.65183       48.02477       14.42615
H         44.78032       49.85185       15.03521
H         46.41125       50.49537       15.48535
H         45.57975       51.08551       14.00050
N         46.68655       49.24350       12.54025
C         47.24546       48.19405       11.69581
C         48.64992       47.79721       12.12195
O         49.52236       48.65406       12.16248
C         47.27942       48.67875       10.23317
C         47.77605       47.60276        9.31808
O         48.77573       47.77712        8.64004
O         47.12143       46.43199        9.25776
H         46.44503       50.14712       12.10337
H         46.56897       47.31119       11.74187
H         47.92689       49.57949       10.14612
H         46.25193       48.95479        9.91348
N         48.94323       46.49020       12.39076
C         50.28408       46.01404       12.71245
C         50.80692       44.97026       11.71993
O         51.96179       44.59297       11.86766
C         50.27525       45.41822       14.12469
H         48.18080       45.80142       12.35779
H         51.00244       46.86244       12.70252
H         49.93521       46.17987       14.85814
H         49.58659       44.54632       14.17273
H         51.29373       45.08384       14.41759
N         50.03699       44.41767       10.72754
C         50.50924       43.29856        9.90275
C         50.04830       43.33833        8.43364
O         50.42533       42.44179        7.69156
C         50.14669       41.97603       10.60874
C         48.67933       41.83492       10.88261
O         48.23532       41.73245       12.14992
O         47.88394       41.80818        9.96356
H         49.03985       44.66264       10.67713
H         51.62097       43.31382        9.85243
H         50.68042       41.94850       11.58443
H         50.50308       41.11087       10.00943
N         49.30122       44.35861        7.92187
C         48.97990       44.51590        6.50472
C         47.96839       43.55059        5.89795
O         47.67620       43.72464        4.72287
H         49.04150       45.13443        8.53622
H         49.92188       44.47904        5.91546
H         48.54508       45.53041        6.36804
N         47.37890       42.53345        6.58902
C         46.38957       41.63188        5.98058
C         45.02558       42.29931        5.65922
O         44.16326       41.60232        5.14159
C         46.19239       40.35212        6.84082
C         45.82763       40.61837        8.29652
N         45.23592       39.43628        8.91396
O         44.94985       41.67825        8.37712
H         47.67144       42.36944        7.55867
H         46.79971       41.25598        5.01689
H         47.12691       39.75135        6.85364
H         45.40530       39.72851        6.36256
H         45.97183       38.70221        9.00669
H         44.91466       39.68228        9.87814
N         44.75920       43.62314        5.88637
C         43.51728       44.28461        5.47548
C         42.28343       44.05135        6.35043
O         41.23984       44.58551        6.00610
H         45.50403       44.22688        6.25139
H         43.29420       44.00648        4.42189
H         43.68911       45.38240        5.49030
N         42.31629       43.30386        7.48834
C         41.17167       43.05649        8.37290
C         41.48261       43.52520        9.80137
O         42.54563       44.07988       10.03107
C         40.81795       41.54385        8.34980
C         40.41912       41.06184        6.94582
O         41.86105       40.76312        8.88169
H         43.19867       42.87766        7.74540
H         40.27319       43.61101        8.02380
H         39.92222       41.36842        8.97995
H         42.55654       40.65758        8.18323
H         41.26168       41.17007        6.23093
H         40.12471       39.99166        6.98713
H         39.55419       41.65030        6.57159
N         40.60299       43.29232       10.82384
C         40.85279       43.65334       12.22075
C         41.12594       42.37574       13.00070
O         40.36686       41.42614       12.87057
C         39.63226       44.40748       12.83528
C         39.24943       45.64842       11.99076
C         39.94250       44.81135       14.29606
C         37.98601       46.35655       12.49470
H         39.72900       42.78690       10.62385
H         41.73969       44.32038       12.30523
H         38.76038       43.71528       12.83732
H         39.03696       45.32279       10.95033
H         40.09221       46.37270       11.96429
H         39.07099       45.28301       14.78943
H         40.18490       43.92362       14.91008
H         40.80318       45.51412       14.33393
H         38.13446       46.79711       13.50101
H         37.72586       47.18775       11.80717
H         37.13265       45.64543       12.52867
N         42.16896       42.31196       13.88036
C         42.49015       41.11734       14.66372
C         42.08322       41.33805       16.09898
O         41.61482       42.41546       16.42315
C         44.00740       40.81289       14.62140
C         44.55999       40.89601       13.24259
O         45.04897       39.92326       12.69119
O         44.52241       42.08499       12.62198
H         42.72764       43.16114       14.04269
H         41.92884       40.24347       14.26714
H         44.19637       39.80729       15.05574
H         44.56447       41.56659       15.21973
N         42.22256       40.35516       17.02996
C         41.87998       40.59601       18.42156
C         42.80548       41.64108       19.05496
O         42.27140       42.59956       19.59987
C         41.84360       39.29386       19.24579
C         41.21286       39.56260       20.59502
C         41.94770       39.40580       21.78042
C         39.87241       39.99329       20.67163
C         41.35506       39.68850       23.01681
C         39.28707       40.27535       21.90608
C         40.02810       40.12560       23.07874
H         42.55480       39.42375       16.73932
H         40.83881       40.98400       18.42392
H         42.86198       38.87202       19.34655
H         41.21971       38.53464       18.72575
H         42.97861       39.07737       21.74802
H         39.27631       40.11641       19.77586
H         41.92572       39.57378       23.92837
H         38.25915       40.61294       21.95035
H         39.57228       40.34852       24.03438
N         44.18120       41.57587       19.02059
C         45.05942       42.55765       19.65282
C         45.07606       43.92148       18.96401
O         45.82794       44.77348       19.41472
C         46.43457       41.88040       19.61947
C         46.37125       41.11333       18.32276
C         44.96364       40.52731       18.38547
H         44.78669       42.71836       20.71951
H         47.30711       42.55700       19.74538
H         46.46979       41.11978       20.43344
H         46.41380       41.85670       17.49300
H         47.17487       40.36233       18.16805
H         44.66196       40.29754       17.35097
H         44.93414       39.61802       19.02017
N         44.24781       44.22811       17.92437
C         44.15393       45.55847       17.33836
C         42.86754       46.19046       17.83008
O         42.92533       47.23333       18.46743
C         44.19514       45.47730       15.80086
C         45.49662       44.83363       15.29320
C         45.54416       44.70650       13.79522
O         46.60607       44.11334       13.22108
O         44.62955       45.10720       13.09249
H         43.59641       43.52231       17.56882
H         44.99726       46.20445       17.67134
H         44.10293       46.50239       15.37809
H         43.33346       44.87590       15.44431
H         45.59168       43.81202       15.71730
H         46.36662       45.43901       15.62620
N         41.66789       45.58305       17.62146
C         40.43040       46.09642       18.16216
H         39.59260       45.41830       17.89103
H         40.49698       46.14109       19.27089
H         40.22453       47.10758       17.75618
H         41.62842       44.70788       17.08832
Ca        45.07060       42.26504       10.51086
O         44.81849       44.94254        8.66050
H         45.66819       44.44301        8.56494
H         44.90402       45.71803        8.05019
O         43.94081       46.74505       10.72622
H         43.13941       46.59828       11.28862
H         44.17215       47.69708       10.86394

Ca 1.0



