%chk=holoCaM-CaMKII.loop3.water1.frame313.chk
%nprocshared=20
%mem=10GB
%nosave
#b3lyp/svp scf=(tight,noincore,xqc) Test 
#IOP(5/87=12) Density=Current Pop=(MK,readradii) iop(6/33=2) iop(6/42=6)

holoCaM-CaMKII.loop3.water1.frame313 

   0  1 
C         48.78594       28.37052       39.95498
C         47.84279       29.52779       39.82842
O         46.98613       29.69651       40.68075
H         49.81979       28.75661       40.07200
H         48.53195       27.74834       40.83982
H         48.73211       27.73645       39.04484
N         47.92969       30.35929       38.75618
C         47.06857       31.51671       38.55910
C         45.95072       31.13873       37.59191
O         45.87091       31.67956       36.49907
C         47.95566       32.70144       38.09739
C         47.24683       34.02175       37.97085
O         47.86865       35.00398       37.60063
O         45.94605       34.14605       38.27509
H         48.62717       30.14385       38.02653
H         46.58655       31.81452       39.51780
H         48.41413       32.44986       37.11660
H         48.77215       32.84411       38.83892
N         45.03689       30.18845       37.95894
C         43.91771       29.75140       37.11780
C         42.86595       30.83281       36.84838
O         41.96715       30.56689       36.06202
C         43.21302       28.50646       37.72545
C         42.57498       28.74619       39.11182
C         41.80461       27.50720       39.59353
C         41.27018       27.70547       41.02050
N         40.48931       26.55328       41.46475
H         45.17396       29.73165       38.86932
H         44.34369       29.43919       36.13865
H         43.95159       27.67967       37.81163
H         42.42169       28.17344       37.01783
H         41.86964       29.60447       39.06897
H         43.36804       28.97870       39.84862
H         42.47601       26.62097       39.58705
H         40.95603       27.31971       38.89991
H         40.63728       28.61936       41.06882
H         42.12591       27.82963       41.71025
H         40.18560       26.71133       42.45332
H         39.64192       26.44216       40.86290
H         41.07202       25.68560       41.42680
N         42.89314       32.05137       37.46041
C         41.89382       33.10234       37.23527
C         42.48146       34.32455       36.53563
O         41.72745       35.23633       36.22367
C         41.19342       33.47989       38.56923
C         42.10379       33.98117       39.67552
O         43.43345       34.07382       39.48045
O         41.63221       34.25770       40.76621
H         43.65734       32.23954       38.11519
H         41.10150       32.73057       36.54866
H         40.67338       32.57190       38.94529
H         40.41800       34.25058       38.36457
N         43.80456       34.40089       36.21893
C         44.41911       35.49232       35.48465
C         44.43391       36.83828       36.18256
O         45.00207       37.74983       35.59646
H         44.41956       33.61644       36.44754
H         43.91761       35.59651       34.49863
H         45.48162       35.22034       35.29465
N         43.84613       37.07907       37.39507
C         43.86823       38.41325       37.99401
C         45.26981       38.83758       38.41761
O         45.46730       40.01873       38.66594
C         42.84412       38.54926       39.14431
C         43.06609       37.64353       40.32942
N         42.19469       37.66098       41.36228
O         44.01851       36.88535       40.36337
H         43.33798       36.32931       37.87902
H         43.52786       39.12284       37.20617
H         41.83800       38.32179       38.73025
H         42.83843       39.60149       39.50229
H         41.38024       38.29169       41.35290
H         42.33149       37.03716       42.17063
N         46.29027       37.93666       38.51469
C         47.66879       38.30657       38.77339
C         48.20367       37.76468       40.07563
O         49.41068       37.85346       40.25408
H         46.10452       36.93466       38.36962
H         47.82155       39.40726       38.77647
H         48.27710       37.89360       37.93942
N         47.39651       37.25750       41.05959
C         47.93257       36.78992       42.33527
C         47.45856       35.35483       42.67761
O         47.37535       34.59954       41.50497
C         47.61911       37.82994       43.43305
C         46.14999       38.02936       43.73143
C         45.44159       37.08920       44.49892
C         45.48629       39.18642       43.28497
C         44.09831       37.30880       44.82170
C         44.13924       39.39530       43.59543
C         43.44220       38.45903       44.37149
O         42.14661       38.65432       44.69114
H         46.37700       37.26182       40.93553
H         49.04232       36.75125       42.26464
H         48.04989       38.79074       43.07276
H         48.14511       37.59717       44.38292
H         45.93340       36.19962       44.87083
H         46.00904       39.92728       42.69289
H         43.56776       36.58663       45.42913
H         43.64083       40.28835       43.23905
H         41.65661       39.43700       44.40054
N         48.45076       34.72777       43.56254
C         48.11981       33.38009       44.06211
C         47.47491       33.46971       45.43908
O         48.00435       34.14304       46.31287
C         49.41242       32.51155       44.08575
C         49.97260       32.38086       42.64000
C         49.12332       31.11581       44.68222
C         51.29474       31.61698       42.54485
H         48.79679       35.35941       44.32077
H         47.43027       32.85902       43.36452
H         50.16925       33.01484       44.72750
H         50.15859       33.39465       42.22560
H         49.22387       31.87693       41.98802
H         50.04417       30.50452       44.74951
H         48.74578       31.20146       45.72056
H         48.37110       30.57338       44.06999
H         51.18111       30.55955       42.85670
H         51.63911       31.61226       41.48894
H         52.06879       32.10957       43.16980
N         46.36385       32.73398       45.71537
C         45.69590       32.71183       47.00895
C         45.91504       31.36986       47.68524
O         46.57594       30.51369       47.11982
C         44.19772       32.99393       46.80043
O         43.62680       31.99363       45.99943
H         46.00271       32.10436       44.98961
H         46.11540       33.49183       47.68071
H         44.08505       33.98217       46.30170
H         43.67794       33.02412       47.78237
H         42.66299       32.21373       45.91909
N         45.40207       31.12399       48.92113
C         45.56559       29.85056       49.61646
C         44.91691       28.71794       48.84086
O         45.57387       27.71994       48.58208
C         44.94606       29.93133       51.01530
H         44.87721       31.87869       49.38949
H         46.65042       29.63796       49.75363
H         43.85862       30.14975       50.95850
H         45.09387       28.97037       51.55333
H         45.44160       30.73650       51.59886
N         43.62213       28.82322       48.42698
C         42.90806       27.77865       47.69651
C         43.64822       27.36198       46.44116
O         43.87234       26.17264       46.26181
C         41.49995       28.26185       47.33411
H         43.12286       29.70185       48.63580
H         42.79426       26.88724       48.35363
H         40.94267       27.45715       46.80841
H         40.94261       28.52424       48.25882
H         41.54598       29.15754       46.67815
N         44.09973       28.29151       45.55235
C         44.86803       27.94878       44.35631
C         46.06724       27.08781       44.72204
O         46.19154       25.99743       44.18146
C         45.31739       29.22417       43.60514
C         44.12017       29.96041       42.97591
C         44.52103       31.17171       42.18495
O         44.29170       31.22908       40.98797
O         45.08728       32.22305       42.79466
H         43.92768       29.28480       45.76791
H         44.23178       27.35195       43.66349
H         45.99586       28.91780       42.78464
H         45.88247       29.88962       44.29073
H         43.39192       30.27389       43.75094
H         43.62112       29.25861       42.28791
N         46.95504       27.48927       45.67078
C         48.07346       26.68407       46.11800
H         49.01628       27.25133       45.97911
H         47.94769       26.45522       47.19801
H         48.15223       25.72273       45.56836
H         46.81311       28.39312       46.13055
Ca        45.15937       34.43106       40.92390
O         42.98022       34.59762       43.54222
H         42.15188       35.01587       43.88794
H         42.87226       33.63477       43.74257

Ca 1.0



