%chk=holoCaM-CaMKII.loop1.water2.frame26.chk
%nprocshared=20
%mem=10GB
%nosave
#b3lyp/svp scf=(tight,noincore,xqc) Test 
#IOP(5/87=12) Density=Current Pop=(MK,readradii) iop(6/33=2) iop(6/42=6)

holoCaM-CaMKII.loop1.water2.frame26 

   0  1 
C         35.56525       67.80204       29.77807
C         35.62261       66.49717       29.04680
O         35.00607       66.36666       27.99867
H         34.92001       68.52769       29.23948
H         35.15918       67.63976       30.79788
H         36.59038       68.22329       29.85472
N         36.37307       65.47860       29.54571
C         36.53181       64.20891       28.85479
C         35.20293       63.48411       28.72421
O         34.61927       63.10159       29.72941
C         37.53739       63.32906       29.60994
C         37.84929       62.03532       28.92647
O         38.63014       61.16327       29.56990
O         37.41355       61.75853       27.81919
H         36.88450       65.63743       30.42853
H         36.95211       64.42471       27.85310
H         37.12788       63.10268       30.61843
H         38.49655       63.87539       29.73929
N         34.66838       63.27056       27.49233
C         33.40292       62.58524       27.27956
C         33.61219       61.07940       27.31331
O         32.95392       60.39649       28.08484
C         32.80073       63.05333       25.93477
C         31.37117       62.54120       25.69223
C         30.78581       63.18860       24.42439
C         29.31094       62.83371       24.17151
N         29.11609       61.41351       23.88062
H         35.15930       63.66094       26.67262
H         32.67669       62.90414       28.06198
H         33.45743       62.76524       25.08470
H         32.75614       64.16504       25.97012
H         30.73490       62.82649       26.55865
H         31.38166       61.43477       25.60123
H         31.39598       62.91163       23.53725
H         30.83417       64.29356       24.54521
H         28.96139       63.42626       23.29651
H         28.69365       63.12941       25.04896
H         29.36361       60.82820       24.70912
H         28.10803       61.25236       23.65342
H         29.69466       61.13386       23.05552
N         34.50515       60.49803       26.46154
C         34.67441       59.05146       26.31620
C         35.32537       58.37087       27.52361
O         35.44059       57.15204       27.48915
C         35.56712       58.73050       25.09322
C         35.05548       59.23852       23.76829
O         34.91851       60.55781       23.53558
O         34.81890       58.44956       22.86786
H         35.03917       61.12425       25.84349
H         33.67372       58.59921       26.13745
H         35.68772       57.62687       25.01026
H         36.55828       59.16844       25.27537
N         35.82373       59.05630       28.59500
C         36.53622       58.38914       29.67929
C         37.89126       57.80876       29.27022
O         38.50159       57.15141       30.10119
H         35.70070       60.07417       28.66063
H         35.88773       57.58075       30.08433
H         36.72330       59.11315       30.50091
N         38.43231       58.00459       28.02839
C         39.69834       57.40605       27.58438
C         40.93834       57.85592       28.36998
O         41.97730       57.23396       28.19818
C         39.89454       57.63138       26.05823
C         39.79886       59.08471       25.65487
O         40.57699       59.90347       26.09480
O         38.80396       59.49123       24.84497
H         37.90212       58.56456       27.34983
H         39.61354       56.30739       27.74282
H         39.08220       57.08582       25.53054
H         40.86241       57.20042       25.72283
N         40.92009       58.91404       29.22792
C         42.05006       59.33474       30.04881
C         42.63331       60.68057       29.64704
O         43.51987       61.14755       30.34818
H         40.06093       59.45037       29.31658
H         42.88014       58.59734       30.00651
H         41.70297       59.38233       31.10350
N         42.26377       61.31794       28.49789
C         42.90656       62.53130       27.99181
C         41.88156       63.56660       27.54176
O         40.69176       63.27847       27.52686
C         43.85119       62.16645       26.81589
C         45.03821       61.30345       27.27288
O         43.14809       61.53280       25.77579
H         41.56276       60.87499       27.90415
H         43.51822       63.00229       28.79237
H         44.29529       63.09609       26.40178
H         43.02476       60.57782       26.01827
H         45.69712       61.08657       26.40564
H         45.62907       61.84607       28.04033
H         44.69364       60.33812       27.70044
N         42.29310       64.82373       27.18903
C         41.38811       65.89079       26.76634
C         41.85741       66.46275       25.43112
O         42.91945       67.06863       25.37957
C         41.31698       66.98269       27.87879
C         40.71402       66.36259       29.16980
C         40.49197       68.20500       27.42557
C         40.74337       67.28884       30.38497
H         43.29545       65.05394       27.27169
H         40.36357       65.49173       26.63451
H         42.35328       67.32990       28.09075
H         41.29636       65.46262       29.45695
H         39.66453       66.04667       28.97700
H         40.49104       68.99874       28.19829
H         40.93822       68.66840       26.52355
H         39.44470       67.91405       27.20409
H         40.12679       68.19550       30.22902
H         40.32734       66.74885       31.26195
H         41.78968       67.58219       30.61406
N         41.10328       66.30294       24.30437
C         41.46097       66.88352       23.00606
C         41.15233       68.37702       22.98001
O         40.61231       68.89905       23.94115
C         40.66170       66.20893       21.84803
C         40.93006       64.70487       21.72493
O         39.28381       66.46808       21.95684
H         40.25478       65.72580       24.37640
H         42.54146       66.70515       22.81013
H         40.99559       66.63952       20.88103
H         38.90114       65.82759       22.60557
H         40.37685       64.29846       20.85142
H         42.01415       64.51528       21.58169
H         40.58013       64.17529       22.62940
N         41.39734       69.11052       21.85767
C         40.86425       70.45742       21.64846
C         39.33822       70.40121       21.62688
O         38.69090       71.23205       22.24825
C         41.36077       71.05662       20.30383
C         42.87712       71.27858       20.30406
O         41.00384       70.22383       19.22892
H         41.90586       68.65990       21.08300
H         41.20400       71.14522       22.45559
H         40.87199       72.05354       20.18446
H         41.02217       70.78328       18.40879
H         43.42439       70.32038       20.41779
H         43.18628       71.74695       19.34533
H         43.16350       71.96050       21.13253
N         38.71096       69.41529       20.91956
C         37.26025       69.27985       20.74746
C         36.50778       69.01069       22.05403
O         35.28560       68.97052       22.02124
C         36.95452       68.12525       19.75891
C         37.62224       68.32045       18.38209
C         37.41733       67.09626       17.48180
C         38.28234       67.15438       16.20937
N         37.96040       68.29885       15.35730
H         39.32184       68.72730       20.46288
H         36.87619       70.22796       20.30979
H         35.85595       68.03346       19.60823
H         37.32247       67.17741       20.21019
H         38.71501       68.44402       18.49192
H         37.21861       69.23734       17.90289
H         36.34170       66.98599       17.22592
H         37.73836       66.18801       18.03897
H         38.12435       66.21537       15.63514
H         39.35827       67.19781       16.49482
H         36.95094       68.27379       15.08774
H         38.18229       69.19640       15.84390
H         38.54655       68.24866       14.49295
N         37.15988       68.82949       23.23545
C         36.51280       68.62095       24.52327
C         36.73849       69.86980       25.35568
O         35.76442       70.48316       25.77087
C         37.08557       67.34254       25.17930
C         36.63467       66.07566       24.41709
C         37.31921       64.80351       24.86377
O         38.15980       64.81407       25.74593
O         37.02205       63.64027       24.24726
H         38.18330       68.86063       23.24912
H         35.41081       68.49690       24.41929
H         36.74023       67.25878       26.23113
H         38.19528       67.41410       25.18310
H         36.84365       66.19972       23.33736
H         35.53559       65.95860       24.53489
N         37.99103       70.35257       25.58007
C         38.22555       71.60895       26.25689
H         39.31490       71.82665       26.28164
H         37.72191       72.43216       25.70358
H         37.83846       71.56584       27.29513
H         38.80575       69.84111       25.22453
Ca        38.04791       61.64490       24.68976
O         38.64286       61.84780       21.72849
H         37.84510       61.26380       21.78580
H         38.28264       62.76757       21.79794
O         40.94692       62.03015       24.00941
H         41.47930       62.81598       24.29195
H         41.33346       61.76538       23.13727

Ca 1.0



