%chk=holoCaM.loop2.water2.frame256.chk
%nprocshared=20
%mem=10GB
%nosave
#b3lyp/svp scf=(tight,noincore,xqc) Test 
#IOP(5/87=12) Density=Current Pop=(MK,readradii) iop(6/33=2) iop(6/42=6)

holoCaM.loop2.water2.frame256 

   -2  1 
C         62.35070      -13.42881       62.26058
C         62.41537      -13.31956       60.76380
O         61.43858      -12.93102       60.14093
H         63.11154      -12.75484       62.71093
H         61.34996      -13.13721       62.64265
H         62.56847      -14.47176       62.57280
N         63.57176      -13.63485       60.12295
C         63.77503      -13.49178       58.68503
C         62.85486      -14.41485       57.88788
O         62.82113      -15.60443       58.17193
C         65.24804      -13.81309       58.34850
C         65.64296      -13.40435       56.95870
O         64.88225      -12.76036       56.25551
O         66.87969      -13.68849       56.51101
H         64.36503      -13.94903       60.70480
H         63.59165      -12.42578       58.42167
H         65.42755      -14.90042       58.49177
H         65.92214      -13.25644       59.03448
N         62.10932      -13.93183       56.84988
C         61.17987      -14.73301       56.05831
C         61.55644      -14.83813       54.57439
O         60.80827      -15.48315       53.85398
C         59.77866      -14.12643       56.19729
H         62.19576      -12.93869       56.61424
H         61.13466      -15.77290       56.44953
H         59.48261      -14.09730       57.26755
H         59.75957      -13.09135       55.79248
H         59.03019      -14.73859       55.64952
N         62.69593      -14.29080       54.04325
C         63.04188      -14.45086       52.61867
C         64.51521      -14.19806       52.24467
O         64.82589      -14.34328       51.06861
C         62.11695      -13.56591       51.74023
C         62.36077      -12.08891       51.90020
O         63.32730      -11.63835       52.71445
O         61.69716      -11.28882       51.26139
H         63.31560      -13.79037       54.67779
H         62.86749      -15.51554       52.34903
H         61.05386      -13.77729       51.97481
H         62.28070      -13.81566       50.66955
N         65.47897      -13.84051       53.14094
C         66.86074      -13.59139       52.77479
C         66.99355      -12.39940       51.86000
O         67.53746      -12.54298       50.77490
H         65.26767      -13.75456       54.13341
H         67.29491      -14.50202       52.30809
H         67.44574      -13.37063       53.69510
N         66.54447      -11.17628       52.25976
C         66.72215       -9.95516       51.48106
C         67.61497       -8.94071       52.20808
O         67.74033       -7.81979       51.73362
C         65.35811       -9.36077       51.06415
C         64.37437       -8.91446       52.16372
N         63.80281       -7.62118       51.79797
O         64.94001       -8.85973       53.44009
H         66.08077      -11.10369       53.17661
H         67.23858      -10.17348       50.52072
H         64.81297      -10.08674       50.42272
H         65.58505       -8.49126       50.40707
H         63.15919       -7.75552       50.98574
H         63.25380       -7.22713       52.58545
N         68.32985       -9.28837       53.31993
C         69.26310       -8.40821       54.01423
C         68.62947       -7.32071       54.86812
O         69.37686       -6.62676       55.54277
H         68.29731      -10.26171       53.64934
H         69.97808       -7.96741       53.28555
H         69.85106       -9.03512       54.71875
N         67.28612       -7.10145       54.90167
C         66.63599       -6.07953       55.71975
C         65.51303       -6.68233       56.56345
O         65.23646       -7.86834       56.45669
C         66.07118       -4.97144       54.78826
C         67.19738       -4.22080       54.07501
O         65.20701       -5.51803       53.82471
H         66.68760       -7.65470       54.28977
H         67.35982       -5.60784       56.42001
H         65.53095       -4.19644       55.37624
H         64.34743       -5.71084       54.28138
H         66.76963       -3.41630       53.43983
H         67.87320       -3.75180       54.82263
H         67.78880       -4.90337       53.42997
N         64.77755       -5.87428       57.38024
C         63.56880       -6.27918       58.09076
C         62.39648       -5.68178       57.33242
O         62.36254       -4.47749       57.11665
C         63.61860       -5.81503       59.58348
C         64.63628       -6.63612       60.42537
C         62.23161       -5.82379       60.26283
C         64.19030       -8.06820       60.76918
H         65.02220       -4.87353       57.42082
H         63.44146       -7.37406       58.07239
H         63.95625       -4.75504       59.58543
H         64.79619       -6.11724       61.39553
H         65.61251       -6.66868       59.89647
H         62.31854       -5.48615       61.31767
H         61.53915       -5.12282       59.75314
H         61.77150       -6.83231       60.23868
H         64.98592       -8.58016       61.34977
H         63.27957       -8.06255       61.40483
H         63.97991       -8.66382       59.86614
N         61.38211       -6.48986       56.91364
C         60.21327       -6.02498       56.17927
C         59.07814       -5.79631       57.13971
O         59.24862       -6.01326       58.32739
C         59.79369       -7.07931       55.13250
C         60.87393       -7.32964       54.13559
O         62.07060       -7.76608       54.55556
O         60.67190       -7.15463       52.94465
H         61.39705       -7.47919       57.19280
H         60.42771       -5.05587       55.67654
H         58.88392       -6.74784       54.58950
H         59.56154       -8.03962       55.64528
N         57.88689       -5.31513       56.70199
C         56.77504       -5.05892       57.60095
C         56.25519       -6.34802       58.24655
O         56.18424       -6.36250       59.46630
C         55.68951       -4.22553       56.88812
C         54.56907       -3.81050       57.81042
C         54.83492       -3.08918       58.99079
C         53.23915       -4.12425       57.48622
C         53.79028       -2.70400       59.83318
C         52.19609       -3.72577       58.32688
C         52.47153       -3.01974       59.50086
H         57.78437       -5.08277       55.70142
H         57.15838       -4.40164       58.41163
H         55.28797       -4.75783       56.00692
H         56.17061       -3.29758       56.50794
H         55.84640       -2.82284       59.26732
H         53.00770       -4.66794       56.57864
H         54.00493       -2.15666       60.74200
H         51.17341       -3.96336       58.06651
H         51.66343       -2.71407       60.15171
N         55.90997       -7.47859       57.54173
C         55.47770       -8.72986       58.16596
C         56.39976       -9.18746       59.28039
O         55.93421       -9.53330       60.35730
C         55.55076       -9.75154       57.01694
C         55.21107       -8.90288       55.82082
C         56.01039       -7.63497       56.10368
H         54.43045       -8.61468       58.52437
H         56.60207      -10.08527       56.85586
H         54.92546      -10.65813       57.16403
H         55.42078       -9.36975       54.83436
H         54.12696       -8.65840       55.88378
H         57.08051       -7.76315       55.83954
H         55.55918       -6.81660       55.51851
N         57.74160       -9.20048       59.06151
C         58.74190       -9.66585       60.01428
C         58.66970       -8.84133       61.29035
O         58.51749       -9.40787       62.36304
C         60.15562       -9.57619       59.38285
C         60.29126      -10.41029       58.08073
C         61.61563      -10.22084       57.39286
O         62.51443       -9.59240       57.91920
O         61.78012      -10.67981       56.13883
H         58.05977       -8.83675       58.15304
H         58.55421      -10.73585       60.25686
H         60.91339       -9.92564       60.11793
H         60.36638       -8.51222       59.14259
H         59.53787      -10.08134       57.34149
H         60.11637      -11.48907       58.27510
N         58.73607       -7.48418       61.23585
C         58.64476       -6.63393       62.40054
H         57.68266       -6.80894       62.92639
H         59.49532       -6.83286       63.08405
H         58.68265       -5.56714       62.08671
H         58.82814       -7.03057       60.32602
Ca        63.49833      -10.01466       54.81255
O         65.55066      -10.54728       58.20721
H         65.08018       -9.68033       58.18658
H         66.01100      -10.56116       59.08191
O         66.77375      -10.35139       55.70603
H         66.96475      -11.27175       55.39834
H         67.61198      -10.06209       56.14553

Ca 1.0



