%chk=holoCaM-CaMKII.loop3.water1.frame12.chk
%nprocshared=20
%mem=10GB
%nosave
#b3lyp/svp scf=(tight,noincore,xqc) Test 
#IOP(5/87=12) Density=Current Pop=(MK,readradii) iop(6/33=2) iop(6/42=6)

holoCaM-CaMKII.loop3.water1.frame12 

   0  1 
C         44.87829       54.47960       24.52556
C         43.80761       53.44604       24.70977
O         44.04416       52.27561       24.46494
H         45.81499       54.02613       24.14233
H         44.52558       55.24729       23.80344
H         45.08411       54.97350       25.49951
N         42.59247       53.83863       25.16650
C         41.44059       52.96907       25.40029
C         40.72984       52.78457       24.05466
O         39.75388       53.46693       23.78321
C         40.63124       53.67451       26.52123
C         39.54347       52.98792       27.29577
O         39.07450       53.59838       28.24321
O         39.05221       51.76297       27.05833
H         42.49076       54.84295       25.38885
H         41.76581       51.99235       25.82719
H         40.23742       54.64136       26.14210
H         41.37581       53.90190       27.31812
N         41.26871       51.94579       23.11749
C         40.82264       51.80831       21.72103
C         39.38609       51.32196       21.58895
O         38.72604       51.69414       20.62903
C         41.73489       50.80414       20.96212
C         43.21353       51.23264       20.85267
C         43.44162       52.34013       19.81616
C         44.91826       52.76233       19.79086
N         45.17156       53.72281       18.71759
H         42.07646       51.38549       23.41525
H         40.89415       52.79696       21.22031
H         41.35250       50.61206       19.93482
H         41.69159       49.83931       21.50741
H         43.80546       50.35008       20.52280
H         43.60521       51.54612       21.83901
H         42.82257       53.23214       20.04397
H         43.15031       51.94770       18.81657
H         45.56909       51.87269       19.63729
H         45.17994       53.22110       20.77117
H         44.54893       54.55678       18.81804
H         46.16876       54.03389       18.76468
H         45.00566       53.26776       17.79017
N         38.84998       50.47079       22.50175
C         37.49651       49.93100       22.44859
C         36.58139       50.57251       23.49810
O         35.41454       50.21013       23.55363
C         37.53428       48.37998       22.50475
C         38.36873       47.75640       23.60526
O         39.22370       46.93316       23.32253
O         38.17314       48.06375       24.89476
H         39.42852       50.21419       23.30040
H         37.00851       50.19189       21.48310
H         37.94820       48.00978       21.54066
H         36.49147       48.00204       22.57490
N         37.00384       51.61067       24.27860
C         36.13850       52.40269       25.13758
C         35.56545       51.71046       26.35797
O         34.81478       52.37397       27.06013
H         37.96733       51.94365       24.18938
H         35.30596       52.80264       24.52024
H         36.72218       53.27285       25.51354
N         35.84465       50.41832       26.70403
C         35.22581       49.78207       27.86923
C         35.60699       50.43260       29.20410
O         34.99495       50.09600       30.20752
C         35.50945       48.26140       27.89271
C         36.92307       47.89456       28.28910
N         37.14637       47.06094       29.33178
O         37.87163       48.33601       27.66304
H         36.45125       49.85634       26.09766
H         34.12787       49.89641       27.72809
H         35.29061       47.84410       26.88564
H         34.80516       47.78300       28.60627
H         36.36376       46.66118       29.86940
H         38.10680       46.80106       29.59846
N         36.61503       51.34959       29.29354
C         37.00255       52.03765       30.51447
C         38.40697       51.68547       30.97182
O         38.86225       52.30302       31.92475
H         37.14863       51.58958       28.45503
H         36.30897       51.81209       31.35307
H         36.94505       53.13001       30.31736
N         39.12353       50.66518       30.40953
C         40.40930       50.20228       30.92919
C         41.42776       50.03878       29.80609
O         41.19162       49.25739       28.89377
C         40.18703       48.84016       31.61165
C         39.24897       48.94664       32.79314
C         37.91238       48.53160       32.67579
C         39.70198       49.45231       34.02411
C         37.04377       48.61774       33.76652
C         38.83495       49.52135       35.12155
C         37.50159       49.10335       34.99474
O         36.65431       49.15952       36.04247
H         38.69871       50.11164       29.65173
H         40.81029       50.90532       31.69322
H         41.14560       48.39214       31.95421
H         39.75768       48.14928       30.85415
H         37.53739       48.15277       31.73673
H         40.72968       49.77357       34.14009
H         36.01428       48.30053       33.65708
H         39.20002       49.89582       36.06995
H         36.93250       49.47105       36.91546
N         42.60319       50.72967       29.82513
C         43.66737       50.54155       28.83465
C         44.32515       49.18341       29.06252
O         44.67957       48.89137       30.19844
C         44.76196       51.65217       28.94951
C         44.15238       53.07317       28.80269
C         45.84806       51.43302       27.86678
C         45.15758       54.18913       29.10232
H         42.75429       51.39881       30.59445
H         43.24312       50.62636       27.80725
H         45.23019       51.57482       29.95613
H         43.32612       53.21342       29.52684
H         43.73336       53.20785       27.78293
H         46.66932       52.16958       27.94408
H         46.32757       50.44097       27.97096
H         45.40169       51.50132       26.85024
H         45.99370       54.20403       28.37653
H         44.64733       55.17269       29.04302
H         45.56537       54.06576       30.12913
N         44.60849       48.34852       28.02183
C         45.32357       47.08218       28.17208
C         46.67897       47.13836       27.48225
O         46.99941       48.14551       26.86714
C         44.47108       45.93535       27.60562
O         44.27604       46.10991       26.22621
H         44.36198       48.65262       27.07084
H         45.51337       46.86944       29.24674
H         43.49953       45.91078       28.15305
H         44.96778       44.95609       27.77029
H         43.30690       46.00154       26.04544
N         47.54349       46.09047       27.56568
C         48.84943       46.05347       26.90990
C         48.70672       46.05213       25.39801
O         49.35560       46.84810       24.73746
C         49.62287       44.80226       27.33734
H         47.26117       45.27771       28.13788
H         49.45925       46.92824       27.23337
H         49.76868       44.81036       28.43870
H         49.07840       43.87700       27.05343
H         50.62531       44.79268       26.85659
N         47.85413       45.17588       24.79126
C         47.65337       45.09469       23.34454
C         47.29546       46.44554       22.76230
O         47.94327       46.88864       21.82339
C         46.52957       44.09445       23.03443
H         47.29870       44.55276       25.39705
H         48.58487       44.72802       22.86017
H         45.57341       44.41610       23.50323
H         46.37555       44.01348       21.93730
H         46.79161       43.09009       23.42866
N         46.28699       47.16925       23.31002
C         45.88109       48.49359       22.85204
C         47.05675       49.45706       22.88323
O         47.28973       50.13523       21.89264
C         44.71382       49.00813       23.71922
C         43.46705       48.12160       23.53751
C         42.31557       48.58348       24.37444
O         42.39906       48.61521       25.71446
O         41.27036       48.88989       23.83996
H         45.81232       46.76070       24.12827
H         45.51216       48.43763       21.80261
H         44.45515       50.03591       23.40039
H         45.02269       49.03885       24.78665
H         43.67250       47.07091       23.81405
H         43.17435       48.13368       22.46434
N         47.88044       49.51262       23.96501
C         49.05952       50.35046       24.04398
H         49.96132       49.70450       24.11405
H         49.17106       51.01108       23.15945
H         49.00293       50.98078       24.95520
H         47.69547       48.89086       24.75687
Ca        38.86741       50.06944       25.63747
O         40.43866       46.49138       27.60476
H         40.61646       45.61499       27.18002
H         40.30698       46.27991       28.56303

Ca 1.0



