%chk=holoCaM-CaMKII.loop1.water2.frame101.chk
%nprocshared=20
%mem=10GB
%nosave
#b3lyp/svp scf=(tight,noincore,xqc) Test 
#IOP(5/87=12) Density=Current Pop=(MK,readradii) iop(6/33=2) iop(6/42=6)

holoCaM-CaMKII.loop1.water2.frame101 

   0  1 
C         20.44784       40.22472       46.20184
C         19.50764       39.52137       45.26978
O         18.51304       38.98537       45.73304
H         21.30945       40.66087       45.65407
H         19.91028       41.04209       46.72670
H         20.83407       39.50068       46.94933
N         19.74920       39.49666       43.92988
C         18.86746       38.83146       42.97993
C         18.85135       37.33031       43.21383
O         19.89695       36.70068       43.14286
C         19.28412       39.19226       41.53490
C         18.54336       38.47286       40.42740
O         19.19603       37.83757       39.61604
O         17.19788       38.52794       40.28604
H         20.57669       39.99869       43.57257
H         17.86602       39.23927       43.14797
H         20.36732       38.97188       41.41326
H         19.14340       40.28698       41.39863
N         17.67106       36.69635       43.47836
C         17.53488       35.26766       43.72675
C         16.74798       34.58392       42.61399
O         16.48732       33.39529       42.74417
C         16.81135       35.03935       45.08119
C         17.46294       35.73600       46.29251
C         18.95243       35.41789       46.50051
C         19.22806       33.93070       46.76216
N         20.66515       33.68926       46.88247
H         16.80500       37.24851       43.49105
H         18.52887       34.77395       43.76563
H         16.75028       33.94822       45.28076
H         15.76558       35.41445       45.00948
H         16.89337       35.46651       47.20917
H         17.36076       36.83039       46.15802
H         19.31875       36.00763       47.36908
H         19.52430       35.75208       45.61247
H         18.84027       33.31265       45.92522
H         18.71451       33.61851       47.69871
H         21.14201       33.94423       45.98636
H         21.06531       34.25341       47.66663
H         20.82838       32.67422       47.07145
N         16.34827       35.25121       41.48791
C         15.52554       34.64035       40.44643
C         16.23566       34.53107       39.10676
O         15.70311       33.85451       38.23693
C         14.27905       35.51262       40.22338
C         13.47538       35.72397       41.47049
O         13.32586       36.96675       41.96827
O         12.94410       34.77944       42.02994
H         16.60627       36.23887       41.36564
H         15.22441       33.61291       40.74643
H         13.62537       35.07404       39.43864
H         14.63537       36.50015       39.86575
N         17.36706       35.23608       38.81968
C         17.93751       35.28156       37.48372
C         17.44345       36.47987       36.68728
O         17.82323       36.58589       35.52999
H         17.76216       35.86885       39.52214
H         17.65689       34.37004       36.91338
H         19.04643       35.28383       37.55752
N         16.58712       37.41018       37.21365
C         16.02569       38.51490       36.43583
C         16.88167       39.78070       36.47312
O         16.49775       40.75511       35.84056
C         14.54578       38.76647       36.82126
C         14.31009       39.12174       38.26410
O         14.85917       40.08374       38.76572
O         13.44067       38.40503       38.99891
H         16.29389       37.32558       38.19517
H         15.99153       38.22202       35.36278
H         13.95650       37.85168       36.59205
H         14.14655       39.58831       36.18938
N         18.08426       39.82540       37.11519
C         18.99391       40.96085       37.03821
C         18.55141       42.21552       37.76670
O         19.29867       43.18267       37.70639
H         18.42978       38.98706       37.59399
H         19.17648       41.19966       35.96727
H         19.96747       40.66277       37.48424
N         17.38901       42.29658       38.47655
C         16.97329       43.49829       39.19999
C         16.78435       43.20813       40.68246
O         16.85561       42.05748       41.09522
C         15.67906       44.08980       38.58264
C         15.89399       44.59509       37.14925
O         14.62068       43.16667       38.62853
H         16.77487       41.47784       38.51745
H         17.76379       44.27818       39.13543
H         15.37248       44.97857       39.17458
H         14.74664       42.50968       37.89573
H         16.19555       43.76608       36.47491
H         14.94894       45.03768       36.76755
H         16.68120       45.37780       37.13453
N         16.58223       44.24137       41.55035
C         16.41589       44.09232       42.99353
C         15.10472       44.75878       43.40598
O         14.85176       45.88551       42.99925
C         17.62869       44.71616       43.75188
C         18.96468       44.10733       43.23996
C         17.47677       44.47977       45.27163
C         20.21317       44.70681       43.89425
H         16.58781       45.20219       41.17264
H         16.39415       43.01551       43.27771
H         17.64738       45.81156       43.55816
H         19.05568       44.30226       42.15028
H         18.97122       43.00576       43.39637
H         18.28839       44.96793       45.84541
H         16.53268       44.91562       45.64956
H         17.48379       43.39125       45.49919
H         21.12066       44.27161       43.42508
H         20.23344       45.80801       43.75147
H         20.26014       44.47244       44.97677
N         14.25704       44.13874       44.27155
C         12.99494       44.69330       44.75126
C         13.12566       45.06624       46.21366
O         14.19229       44.90534       46.78571
C         11.85010       43.65294       44.58906
C         11.60842       43.29061       43.11890
O         12.11305       42.52006       45.39136
H         14.55536       43.24904       44.67479
H         12.73037       45.61827       44.19349
H         10.89291       44.08703       44.94267
H         12.17418       41.70671       44.82831
H         12.51481       42.82036       42.70166
H         10.76381       42.57172       43.04309
H         11.35339       44.19855       42.53371
N         12.06096       45.56611       46.89216
C         12.08917       45.85696       48.31988
C         12.38506       44.59261       49.12387
O         13.33756       44.59758       49.89071
C         10.75407       46.50402       48.77459
C         10.57341       47.89496       48.14655
O          9.66875       45.68029       48.42973
H         11.18701       45.72904       46.37099
H         12.89745       46.59505       48.53001
H         10.79298       46.62986       49.88115
H          8.86938       46.03828       48.89588
H         10.53623       47.84192       47.03870
H          9.62705       48.35162       48.50497
H         11.41271       48.55902       48.44419
N         11.60464       43.47689       49.01004
C         11.79895       42.27653       49.83078
C         13.09527       41.52447       49.54846
O         13.39563       40.59859       50.29033
C         10.59830       41.31947       49.67950
C          9.32795       41.95776       50.27008
C          8.07226       41.08121       50.18434
C          8.23499       39.71992       50.87833
N          6.95079       39.02856       50.97378
H         10.81387       43.50360       48.35069
H         11.84364       42.59462       50.89667
H         10.81335       40.39267       50.25197
H         10.45537       41.04889       48.60956
H          9.10221       42.91442       49.75365
H          9.51918       42.18679       51.34170
H          7.78128       40.92443       49.12285
H          7.25838       41.64714       50.68817
H          8.63973       39.86438       51.90428
H          8.94770       39.09065       50.30079
H          7.10028       38.08743       51.40378
H          6.30234       39.57672       51.58528
H          6.52675       38.91038       50.02541
N         13.92872       41.87078       48.53395
C         15.23618       41.26350       48.32744
C         16.26632       42.07897       49.08624
O         17.01897       41.50589       49.86204
C         15.52757       41.16715       46.81974
C         14.57103       40.15945       46.14471
C         14.76891       40.11659       44.65868
O         14.51223       41.08003       43.96346
O         15.31172       39.04343       44.08204
H         13.67655       42.66067       47.92732
H         15.27611       40.22576       48.73173
H         16.57166       40.81728       46.65944
H         15.43722       42.17600       46.37457
H         13.50955       40.40217       46.35191
H         14.78496       39.15357       46.56880
N         16.30428       43.43456       48.97833
C         17.19973       44.25368       49.76401
H         18.25280       44.02981       49.49922
H         16.99551       45.32850       49.56758
H         17.03469       44.06366       50.84717
H         15.64214       43.91093       48.35904
Ca        15.91308       39.32603       41.93198
O         12.05869       39.76031       42.63761
H         11.70575       38.99082       43.15008
H         11.29845       40.05543       42.07633
O         13.27693       41.53444       40.61542
H         13.57577       42.46585       40.76516
H         12.35760       41.62264       40.25873

Ca 1.0



