%chk=holoCaM.loop3.water3.frame324.chk
%nprocshared=20
%mem=10GB
%nosave
#b3lyp/svp scf=(tight,noincore,xqc) Test 
#IOP(5/87=12) Density=Current Pop=(MK,readradii) iop(6/33=2) iop(6/42=6)

holoCaM.loop3.water3.frame324 

   0  1 
C         18.89232       49.52314      100.71115
C         20.17987       50.12223      101.18273
O         20.18922       50.73043      102.24347
H         18.13596       50.32544      100.58941
H         19.02166       49.00050       99.74059
H         18.53439       48.78989      101.46417
N         21.32335       49.96713      100.45823
C         22.60274       50.49158      100.90989
C         22.55944       52.01503      100.89120
O         22.52087       52.60861       99.82226
C         23.72550       49.90871      100.03680
C         25.10202       50.16227      100.55365
O         26.03939       49.66075       99.96509
O         25.32333       50.88083      101.67088
H         21.28509       49.41423       99.58755
H         22.76194       50.11200      101.94546
H         23.63918       50.28427       98.99362
H         23.60467       48.80307      100.01620
N         22.43336       52.69624      102.06253
C         22.16179       54.12761      102.14676
C         23.36509       54.98727      101.78953
O         23.15614       56.13578      101.42401
C         21.60297       54.44426      103.55158
C         21.07906       55.87382      103.74246
C         20.37376       55.98423      105.10332
C         19.83271       57.39510      105.35841
N         19.11440       57.44963      106.63253
H         22.37401       52.13913      102.92020
H         21.34619       54.34413      101.41995
H         22.37414       54.22752      104.32221
H         20.74530       53.75221      103.71355
H         20.34529       56.11040      102.94092
H         21.92110       56.59651      103.68940
H         21.08341       55.71479      105.91620
H         19.52278       55.26708      105.12410
H         19.13935       57.68552      104.53809
H         20.67910       58.11676      105.37848
H         18.28992       56.80576      106.60638
H         19.74779       57.17519      107.41843
H         18.77417       58.42457      106.79532
N         24.64562       54.51722      101.87651
C         25.81363       55.30909      101.48377
C         26.59225       54.66241      100.33998
O         27.55813       55.26182       99.88796
C         26.70333       55.62134      102.70876
C         27.34426       54.44226      103.38800
O         27.19620       53.30539      102.97191
O         28.10852       54.65598      104.47565
H         24.79883       53.56528      102.23848
H         25.48621       56.29896      101.09766
H         26.08112       56.15535      103.45948
H         27.51755       56.31114      102.39555
N         26.21126       53.47394       99.78427
C         26.85696       52.89273       98.62042
C         28.30367       52.53285       98.86031
O         29.15853       53.05883       98.16201
H         25.38956       52.97578      100.14694
H         26.77732       53.61040       97.77477
H         26.31489       51.96796       98.32508
N         28.64754       51.60945       99.80327
C         30.02389       51.16766      100.03464
C         30.22621       49.68448       99.72509
O         31.35108       49.21625       99.83108
C         30.44707       51.48408      101.48526
C         29.74682       50.63779      102.52903
N         30.46078       49.83758      103.35548
O         28.53205       50.68117      102.64138
H         27.89417       51.19925      100.36775
H         30.70919       51.72811       99.36312
H         30.25630       52.55897      101.69346
H         31.54298       51.31926      101.56764
H         31.48749       49.78561      103.28926
H         29.98564       49.26951      104.07195
N         29.18570       48.88102       99.36615
C         29.29555       47.46039       99.10211
C         28.56814       46.64242      100.14693
O         28.42136       45.44788       99.92578
H         28.24447       49.27075       99.28706
H         30.35006       47.11134       99.07382
H         28.84888       47.26939       98.10221
N         28.16048       47.17892      101.34129
C         27.54285       46.37745      102.39198
C         26.26234       47.00410      102.91484
O         26.05897       48.20080      102.76729
C         28.51631       46.18657      103.57414
C         29.78388       45.47517      103.16338
C         30.81551       46.15867      102.49349
C         29.94415       44.11112      103.45366
C         31.98310       45.48491      102.12017
C         31.10575       43.43739      103.06937
C         32.13071       44.12256      102.40216
O         33.25752       43.48313      102.02903
H         28.36344       48.16591      101.55352
H         27.28948       45.36693      102.00170
H         27.99291       45.57557      104.34187
H         28.77483       47.15335      104.05796
H         30.72317       47.21329      102.26759
H         29.16186       43.56393      103.96437
H         32.77357       46.02176      101.61018
H         31.20618       42.38253      103.29047
H         33.39441       42.54054      102.20215
N         25.37175       46.22714      103.59446
C         24.16804       46.72293      104.25180
C         24.26072       46.35008      105.72251
O         24.41814       45.17287      106.02110
C         22.88215       46.10689      103.61362
C         22.77621       46.48952      102.11522
C         21.62272       46.58120      104.37726
C         21.61705       45.79891      101.38807
H         25.56626       45.21558      103.66612
H         24.08410       47.82434      104.14912
H         22.94573       44.99891      103.69326
H         23.70699       46.18450      101.59298
H         22.66534       47.59051      102.01397
H         21.66867       46.27296      105.43855
H         21.52554       47.68763      104.32779
H         20.69707       46.12275      103.98004
H         20.63060       46.10104      101.79288
H         21.63115       46.08298      100.31525
H         21.72225       44.69556      101.46435
N         24.09066       47.28909      106.69625
C         23.99608       46.94695      108.11270
C         22.53725       46.89204      108.50400
O         21.70926       47.32414      107.72010
C         24.75647       47.97414      108.96516
O         24.20683       49.25192      108.77557
H         23.86399       48.25187      106.41450
H         24.42043       45.93453      108.28725
H         25.82539       47.98146      108.65879
H         24.67791       47.69023      110.03826
H         24.68775       49.86217      109.39206
N         22.12479       46.31884      109.67044
C         20.70377       46.23809      109.99986
C         20.12075       47.61058      110.29764
O         18.90941       47.76252      110.22131
C         20.45116       45.28775      111.16913
H         22.82496       45.88957      110.29491
H         20.17960       45.80706      109.11541
H         20.95202       45.65597      112.08852
H         19.35968       45.19529      111.35741
H         20.84512       44.27888      110.91962
N         20.92297       48.65613      110.65618
C         20.42510       50.00998      110.86214
C         19.89660       50.54981      109.55123
O         18.75105       50.97464      109.49735
C         21.54342       50.91365      111.39302
H         21.93268       48.48985      110.78029
H         19.62126       50.00441      111.63299
H         22.39711       50.95991      110.68466
H         21.15509       51.94079      111.56162
H         21.90955       50.51774      112.36504
N         20.67582       50.49870      108.43143
C         20.21348       50.89833      107.10656
C         18.93615       50.15439      106.74882
O         17.95586       50.80133      106.40820
C         21.30127       50.64186      106.03408
C         22.52278       51.56585      106.20333
C         23.47157       51.43860      105.01395
O         24.48886       52.39574      105.06958
O         24.08131       50.18570      104.96355
H         21.62289       50.10125      108.52155
H         19.98619       51.98815      107.10022
H         20.85535       50.86303      105.03913
H         21.61569       49.57475      106.04122
H         23.06373       51.36908      107.15265
H         22.15852       52.61519      106.21380
N         18.86333       48.79954      106.85486
C         17.66980       48.02812      106.57975
H         16.83230       48.65845      106.21624
H         17.89894       47.26152      105.81097
H         17.34562       47.51473      107.51036
H         19.68168       48.28280      107.18401
Ca        26.17221       50.96227      104.55202
O         29.09729       51.79463      105.59453
H         29.12573       52.29317      104.74112
H         30.04745       51.70125      105.85379
O         26.56348       52.16806      107.17697
H         25.85514       51.84971      107.79062
H         26.49984       53.15553      107.20758
O         27.36978       48.84666      106.15820
H         27.75462       47.93683      106.21136
H         27.99731       49.41419      106.67246

Ca 1.0



