%chk=holoCaM.loop2.water2.frame144.chk
%nprocshared=20
%mem=10GB
%nosave
#b3lyp/svp scf=(tight,noincore,xqc) Test 
#IOP(5/87=12) Density=Current Pop=(MK,readradii) iop(6/33=2) iop(6/42=6)

holoCaM.loop2.water2.frame144 

   -2  1 
C         -2.95639       73.25551        0.68371
C         -2.25322       71.95151        0.93567
O         -1.22021       71.93658        1.58847
H         -3.97816       73.20855        1.12116
H         -2.41475       74.10124        1.15739
H         -3.04339       73.44139       -0.40671
N         -2.80435       70.79579        0.47913
C         -2.27889       69.47177        0.79531
C         -0.96115       69.18963        0.07418
O         -0.91701       69.31142       -1.14263
C         -3.31440       68.40808        0.38346
C         -3.07172       67.05022        0.99183
O         -3.75199       66.11608        0.59761
O         -2.13194       66.81407        1.92778
H         -3.69417       70.86772       -0.04139
H         -2.17216       69.40672        1.89783
H         -3.32411       68.32778       -0.72569
H         -4.33167       68.70868        0.69744
N          0.12945       68.74113        0.75941
C          1.39730       68.36314        0.13480
C          1.72816       66.87951        0.33429
O          2.76567       66.44708       -0.14839
C          2.51183       69.22059        0.74358
H          0.05178       68.63151        1.77664
H          1.36740       68.55091       -0.96029
H          2.58140       69.03889        1.83911
H          3.49299       68.97971        0.28158
H          2.29941       70.29728        0.57565
N          0.91930       66.05222        1.05777
C          1.22203       64.66581        1.38795
C          0.11655       63.71043        0.91982
O          0.43605       62.79719        0.17125
C          1.58000       64.57636        2.89503
C          0.68091       65.32265        3.84584
O         -0.46454       64.97266        4.03202
O          1.15965       66.38204        4.52625
H          0.07181       66.43371        1.47122
H          2.14737       64.32936        0.86859
H          2.57531       65.05967        3.00205
H          1.68887       63.51718        3.21123
N         -1.18812       63.84453        1.29828
C         -2.25992       62.93927        0.89118
C         -2.93532       62.26032        2.07460
O         -3.84712       61.47760        1.84905
H         -1.45085       64.62558        1.89849
H         -1.87925       62.14231        0.21745
H         -3.02315       63.51725        0.32726
N         -2.53068       62.48500        3.35871
C         -3.06671       61.79430        4.52806
C         -4.55591       62.02756        4.79393
O         -5.09562       61.32624        5.63830
C         -2.22861       62.15272        5.78630
C         -2.24976       63.61662        6.18087
N         -1.57935       64.02842        7.27955
O         -2.85829       64.43735        5.51375
H         -1.74662       63.11816        3.51484
H         -2.93572       60.70619        4.34067
H         -1.16848       61.87213        5.59918
H         -2.59358       61.55304        6.64589
H         -1.04461       63.36152        7.85356
H         -1.60301       65.01831        7.56089
N         -5.27890       62.98919        4.15116
C         -6.71035       63.18772        4.33755
C         -7.06379       64.45623        5.09614
O         -8.24582       64.76133        5.16400
H         -4.80815       63.60897        3.48647
H         -7.17133       62.34514        4.89801
H         -7.18210       63.20222        3.33179
N         -6.12971       65.18148        5.78188
C         -6.46488       66.29804        6.66860
C         -5.61560       67.53850        6.41997
O         -4.64656       67.48677        5.68052
C         -6.25929       65.83740        8.13895
C         -7.29806       64.78695        8.53208
O         -4.97677       65.28682        8.32531
H         -5.15773       64.86042        5.77458
H         -7.52349       66.60657        6.52633
H         -6.40306       66.68583        8.84350
H         -4.31118       66.00114        8.15123
H         -8.32053       65.21016        8.43125
H         -7.21476       63.88141        7.89554
H         -7.14535       64.48840        9.59063
N         -5.90469       68.69136        7.09407
C         -5.03839       69.86269        7.09150
C         -4.06538       69.71043        8.24799
O         -4.47486       69.60630        9.39578
C         -5.86395       71.18047        7.15195
C         -6.66971       71.35292        5.83729
C         -4.94413       72.39587        7.38172
C         -7.61437       72.55657        5.83888
H         -6.69827       68.68662        7.75212
H         -4.45001       69.89696        6.14872
H         -6.56174       71.11762        8.01573
H         -7.28852       70.44755        5.66293
H         -5.96750       71.46213        4.98200
H         -4.38135       72.29029        8.33047
H         -4.22531       72.51240        6.54509
H         -5.53204       73.32637        7.48788
H         -8.34658       72.46587        6.66779
H         -7.06429       73.51439        5.93279
H         -8.16520       72.59077        4.87553
N         -2.73626       69.65316        7.97387
C         -1.67630       69.43757        8.95298
C         -1.39790       70.75450        9.67385
O         -2.05149       71.73506        9.35740
C         -0.40748       68.95050        8.19899
C         -0.62782       67.74085        7.30860
O         -1.64486       67.76281        6.39637
O          0.15152       66.80015        7.32909
H         -2.46251       69.77693        6.99329
H         -1.97883       68.63837        9.66618
H          0.42640       68.75757        8.91303
H         -0.08822       69.77677        7.52993
N         -0.45135       70.87683       10.64913
C         -0.17725       72.16739       11.28627
C          0.43128       73.16524       10.29271
O         -0.14152       74.23844       10.16402
C          0.67734       72.01392       12.56879
C          0.84624       73.31717       13.32563
C         -0.27172       73.98937       13.85577
C          2.12752       73.86136       13.53200
C         -0.10900       75.17630       14.57763
C          2.28459       75.04944       14.25473
C          1.16781       75.70503       14.77850
H          0.06179       70.03810       10.95872
H         -1.14970       72.57396       11.64430
H          1.66678       71.58886       12.34849
H          0.17397       71.29354       13.24788
H         -1.26958       73.59301       13.72171
H          3.00641       73.36677       13.13814
H         -0.97337       75.68386       14.98673
H          3.27340       75.46054       14.41330
H          1.29168       76.62112       15.34232
N          1.56117       72.91771        9.54615
C          2.14033       73.87065        8.59672
C          1.13385       74.36757        7.57814
O          1.08997       75.55233        7.28163
C          3.22581       73.05355        7.87335
C          3.65388       72.08527        8.94525
C          2.31002       71.67358        9.53014
H          2.60291       74.71322        9.15663
H          2.77461       72.42872        7.06744
H          4.03844       73.66387        7.42352
H          4.28447       71.23967        8.59708
H          4.21312       72.65774        9.72102
H          1.78151       70.94961        8.87156
H          2.50572       71.21917       10.50909
N          0.28690       73.47316        7.00822
C         -0.69811       73.78914        5.98301
C         -1.70404       74.80253        6.49329
O         -1.90839       75.81249        5.83514
C         -1.38944       72.49242        5.52087
C         -0.35182       71.52844        4.90930
C         -0.94681       70.25362        4.43642
O         -2.27372       70.04059        4.48971
O         -0.20639       69.38719        4.00748
H          0.34807       72.50186        7.34555
H         -0.18753       74.21173        5.08875
H         -2.15663       72.73263        4.75175
H         -1.89253       72.00509        6.38442
H          0.41833       71.24696        5.65273
H          0.15898       72.01387        4.05175
N         -2.33525       74.61560        7.68412
C         -3.27556       75.55554        8.25892
H         -4.23176       75.03931        8.47573
H         -2.86428       75.94453        9.21408
H         -3.48303       76.41260        7.58579
H         -2.11040       73.78284        8.23543
Ca        -1.94077       67.31524        4.16289
O         -4.70932       66.24652        3.42945
H         -5.44460       66.34471        2.77659
H         -4.09189       65.58038        3.04292
O         -4.95163       69.19563        3.17167
H         -5.51519       69.62163        2.47946
H         -4.66021       69.94909        3.73901

Ca 1.0



