%chk=holoCaM.loop4.water3.frame481.chk
%nprocshared=20
%mem=10GB
%nosave
#b3lyp/svp scf=(tight,noincore,xqc) Test 
#IOP(5/87=12) Density=Current Pop=(MK,readradii) iop(6/33=2) iop(6/42=6)

holoCaM.loop4.water3.frame481 

   -3  1 
C        108.31890       56.20982       81.06950
C        108.05898       54.75885       81.33896
O        107.21510       54.17632       80.68067
H        109.36550       56.33539       80.71548
H        107.63654       56.59418       80.28076
H        108.17262       56.79588       81.99813
N        108.80063       54.09614       82.26668
C        108.72681       52.65714       82.47895
C        108.67995       52.30120       83.95791
O        109.50637       52.81375       84.70079
C        110.00265       52.06580       81.87683
C        109.99211       50.58577       81.96404
O        110.87007       49.99659       82.57295
O        109.02835       49.90725       81.32215
H        109.54042       54.62047       82.75870
H        107.86006       52.20726       81.94326
H        110.89737       52.47314       82.39482
H        110.06693       52.33223       80.80024
N        107.82140       51.34451       84.43407
C        107.86023       50.87372       85.82105
C        108.27330       49.39800       85.95299
O        108.47039       48.96903       87.08203
C        106.50229       51.10901       86.54675
C        105.35688       50.20574       86.00978
C        106.09771       52.59416       86.47134
C        104.22780       50.04980       87.03373
H        107.15155       50.91000       83.78675
H        108.63101       51.44849       86.37975
H        106.67934       50.83885       87.61226
H        105.71748       49.17301       85.82679
H        104.97213       50.60173       85.04471
H        105.91037       52.89036       85.41509
H        105.17393       52.79605       87.04894
H        106.90491       53.23824       86.87711
H        104.62260       49.53450       87.93844
H        103.79712       51.02269       87.33929
H        103.41820       49.41954       86.61025
N        108.34417       48.54640       84.88230
C        108.58140       47.10028       85.01662
C        109.67729       46.53681       84.09501
O        110.26849       45.52559       84.44687
C        107.25295       46.33670       84.84083
C        106.46960       46.74848       83.62704
O        106.95301       46.66969       82.51320
O        105.21615       47.21737       83.77663
H        108.09896       48.91113       83.95475
H        108.91675       46.86213       86.05075
H        106.60761       46.54985       85.72098
H        107.44761       45.24377       84.81903
N        110.01094       47.13175       82.92043
C        111.08083       46.69763       82.02731
C        110.73948       45.50249       81.15419
O        111.62911       44.74059       80.80537
H        109.49962       47.96935       82.64488
H        112.05321       46.59792       82.55589
H        111.22282       47.51827       81.29061
N        109.47818       45.35829       80.67019
C        109.07220       44.40268       79.63696
C        109.70498       44.71602       78.28758
O        110.15153       43.79111       77.62278
C        107.51821       44.29545       79.46690
C        106.71292       45.55990       79.27140
O        107.22394       46.71920       79.68983
O        105.52983       45.49245       78.98493
H        108.78376       45.98787       81.06776
H        109.38649       43.37794       79.93338
H        107.09962       43.81148       80.37336
H        107.31359       43.61579       78.61020
N        109.71225       45.98502       77.79352
C        110.11961       46.32300       76.43538
C        108.98487       46.95757       75.65009
O        109.14218       47.12296       74.44850
H        109.39002       46.73869       78.40802
H        110.43651       45.41201       75.88425
H        110.98385       47.02242       76.45025
N        107.82294       47.36076       76.24753
C        106.71783       47.96169       75.51391
C        105.91832       48.91732       76.38252
O        106.25691       49.12529       77.53976
C        105.88711       46.87004       74.81365
C        105.23124       45.85118       75.75265
C        104.57406       44.78489       74.91368
N        105.04091       43.51457       74.92248
O        103.63414       45.07901       74.18951
H        107.71774       47.27479       77.26168
H        107.13459       48.62321       74.72378
H        106.57490       46.31611       74.13889
H        105.10598       47.33571       74.17868
H        104.47725       46.33212       76.41555
H        106.01456       45.39075       76.39006
H        105.84705       43.25064       75.50758
H        104.61309       42.79713       74.31872
N        104.87353       49.60220       75.84544
C        104.22645       50.71404       76.51908
C        102.84145       50.31514       76.96292
O        101.99145       50.00473       76.14000
C        104.22453       51.94399       75.57162
C        103.44354       53.13596       76.14373
C        105.66847       52.37894       75.27257
H        104.56290       49.38052       74.88876
H        104.79887       51.00158       77.42809
H        103.73319       51.65514       74.61532
H        103.45633       53.97672       75.41746
H        102.38052       52.86395       76.30192
H        103.88272       53.47796       77.10407
H        106.24654       51.54978       74.81298
H        105.67556       53.23269       74.56350
H        106.18027       52.68775       76.21045
N        102.55565       50.33512       78.29305
C        101.22696       50.14205       78.84178
C        100.47440       51.45705       78.77271
O        101.07006       52.47216       78.47741
C        101.39199       49.63975       80.30039
C        100.12488       49.48904       81.09189
N         99.12878       48.68550       80.66610
O        100.00505       50.09044       82.14851
H        103.29653       50.62546       78.94590
H        100.68299       49.38226       78.23931
H        102.05376       50.34312       80.85517
H        101.89788       48.65208       80.26997
H         99.20301       48.17404       79.77585
H         98.27369       48.59364       81.22800
N         99.14208       51.50536       79.00264
C         98.36370       52.74074       79.06023
C         98.83196       53.63450       80.21553
O         99.09216       54.80451       79.96840
C         96.84140       52.41342       79.03549
C         96.39238       51.32702       79.98989
C         96.13937       50.02873       79.49978
C         96.23962       51.57678       81.35634
C         95.78247       48.99687       80.36958
C         95.87819       50.54190       82.22798
C         95.66230       49.24618       81.73865
O         95.35191       48.23414       82.57316
H         98.66560       50.60763       79.12706
H         98.52374       53.32546       78.12362
H         96.65840       52.03088       78.00609
H         96.21423       53.32531       79.13426
H         96.25201       49.80373       78.44581
H         96.40692       52.57252       81.74266
H         95.62274       47.99851       79.98104
H         95.77668       50.74282       83.28601
H         95.29772       48.35708       83.53153
N         99.02080       53.15314       81.48229
C         99.48282       53.98842       82.60427
C        100.88773       54.55027       82.40774
O        101.27541       55.42601       83.16981
C         99.47735       53.20496       83.94476
C         98.09270       52.68282       84.35322
C         97.08827       53.76538       84.65600
O         95.93051       53.45840       84.88769
O         97.44710       55.06358       84.70996
H         98.81928       52.16148       81.64502
H         98.79087       54.85295       82.67377
H         99.86314       53.84152       84.77164
H        100.16542       52.33648       83.84096
H         98.18685       52.04111       85.25429
H         97.71577       52.04027       83.54774
N        101.70383       54.10376       81.41699
C        103.00360       54.68302       81.11473
C        102.78866       55.76976       80.07979
O        103.09747       56.92403       80.34016
C        103.94766       53.57635       80.60018
C        104.27599       52.55101       81.70379
C        105.09580       51.38920       81.21295
O        105.43321       50.41067       82.07180
O        105.44039       51.30423       80.04621
H        101.36537       53.36267       80.79362
H        103.46268       55.14595       82.01918
H        104.88319       54.03321       80.23151
H        103.47196       53.05427       79.74246
H        103.33566       52.13509       82.12175
H        104.83395       53.05967       82.52007
N        102.20711       55.46472       78.89168
C        101.85713       56.43493       77.88510
H        101.11666       57.15181       78.29835
H        102.76154       56.96704       77.53130
H        101.38623       55.90963       77.02413
H        101.97418       54.49506       78.69781
Ca       107.36650       48.86181       80.23941
O        104.50619       47.82326       80.71306
H        104.08592       47.36882       79.94211
H        104.31297       47.22459       81.47500
O        109.93881       49.07399       78.91300
H        110.78875       48.57560       78.83382
H        109.72633       49.36834       77.99279
O        108.08266       51.31295       78.92808
H        108.91681       51.58995       78.47673
H        107.80205       52.11403       79.43101

Ca 1.0



