%chk=holoCaM.loop1.water2.frame261.chk
%nprocshared=20
%mem=10GB
%nosave
#b3lyp/svp scf=(tight,noincore,xqc) Test 
#IOP(5/87=12) Density=Current Pop=(MK,readradii) iop(6/33=2) iop(6/42=6)

holoCaM.loop1.water2.frame261 

   0  1 
C         37.73241       21.79753       50.56239
C         37.11736       21.85559       49.19761
O         37.61991       22.56569       48.33813
H         38.62517       22.45460       50.62239
H         36.98913       22.12337       51.31956
H         38.04092       20.75305       50.78222
N         36.02083       21.09960       48.92460
C         35.39215       21.05808       47.61195
C         34.81513       22.42588       47.24779
O         33.88577       22.88280       47.89850
C         34.33017       19.94436       47.61148
C         33.65394       19.78701       46.29621
O         34.29755       19.56110       45.28833
O         32.31966       19.85989       46.23552
H         35.65092       20.49788       49.67838
H         36.17314       20.76921       46.87214
H         33.56432       20.14664       48.39297
H         34.82663       18.97939       47.85543
N         35.38202       23.15825       46.24431
C         34.97844       24.52578       45.90684
C         33.67022       24.60216       45.11696
O         33.16884       25.70501       44.94578
C         36.05709       25.20998       45.01988
C         37.48516       25.26684       45.59696
C         37.58824       26.12688       46.86426
C         39.02392       26.21654       47.41486
N         39.94379       26.88930       46.49338
H         36.20400       22.75457       45.77880
H         34.87379       25.10033       46.85206
H         35.74269       26.25102       44.78478
H         36.11285       24.65999       44.05559
H         38.12271       25.71058       44.80444
H         37.87020       24.24648       45.80332
H         36.95510       25.67647       47.65685
H         37.21320       27.15218       46.65361
H         39.40498       25.19803       47.64995
H         38.98869       26.79584       48.36388
H         40.08459       26.32660       45.62508
H         39.58237       27.84035       46.25064
H         40.87351       26.99393       46.96022
N         33.14957       23.51210       44.48263
C         32.05078       23.58678       43.51002
C         30.89976       22.60979       43.79580
O         29.97478       22.54793       42.99764
C         32.61072       23.45087       42.06667
C         33.38815       22.19846       41.75959
O         33.66679       21.31220       42.72877
O         33.77331       21.99377       40.62045
H         33.62868       22.61406       44.61052
H         31.58600       24.59744       43.52534
H         33.28220       24.31345       41.86143
H         31.75704       23.52164       41.35720
N         30.83436       21.89609       44.95360
C         29.68259       21.09538       45.36778
C         29.46253       19.74574       44.68655
O         28.55730       19.05271       45.13003
H         31.57347       22.04170       45.65329
H         28.75960       21.70983       45.29033
H         29.82079       20.85906       46.44554
N         30.21158       19.27581       43.64554
C         29.98873       17.94066       43.05374
C         30.48189       16.78234       43.93115
O         30.31593       15.63939       43.52830
C         30.53547       17.86314       41.60736
C         31.94717       18.32948       41.46096
O         32.98965       17.67744       41.99860
O         32.15917       19.36719       40.85319
H         30.93215       19.89363       43.24805
H         28.89375       17.78520       42.92774
H         29.90465       18.54999       41.00009
H         30.41600       16.84503       41.17857
N         31.04481       16.98582       45.15430
C         31.46068       15.92144       46.05355
C         32.61714       15.12139       45.50813
O         32.54583       13.90406       45.51039
H         31.15591       17.93980       45.50397
H         30.59825       15.26514       46.30409
H         31.81179       16.38781       47.00069
N         33.74627       15.76424       45.10385
C         34.99770       15.12302       44.67110
C         36.12325       16.15999       44.59449
O         35.85934       17.35442       44.60418
C         34.90939       14.37776       43.30120
C         34.22773       13.00195       43.29777
O         34.34283       15.20423       42.32083
H         33.71669       16.79032       45.19284
H         35.31095       14.41692       45.47166
H         35.95035       14.14210       42.98974
H         33.36576       15.23959       42.49883
H         34.36393       12.53522       42.29857
H         34.69855       12.34033       44.05572
H         33.13787       13.05866       43.45765
N         37.42904       15.75826       44.61192
C         38.54198       16.69984       44.70888
C         39.53399       16.46879       43.57536
O         40.19076       15.43762       43.53702
C         39.18743       16.58212       46.12446
C         38.13279       16.98114       47.19906
C         40.44655       17.45609       46.25061
C         38.61284       16.85824       48.64462
H         37.64003       14.74896       44.65349
H         38.17180       17.74513       44.61930
H         39.49594       15.52493       46.28451
H         37.24390       16.32273       47.10535
H         37.80230       18.03050       47.02798
H         40.18806       18.52549       46.14441
H         40.93516       17.30155       47.23206
H         41.20195       17.17938       45.48899
H         38.92994       15.81628       48.85738
H         39.44631       17.55717       48.85752
H         37.77790       17.12493       49.32734
N         39.68030       17.41991       42.60983
C         40.64832       17.35594       41.51374
C         42.05751       17.67158       42.01131
O         42.24850       17.91493       43.19390
C         40.27275       18.38497       40.40609
C         38.92346       18.07708       39.74243
O         40.31862       19.69548       40.91049
H         39.04760       18.22777       42.65203
H         40.62395       16.34644       41.04751
H         41.00265       18.33347       39.57381
H         39.42739       19.92836       41.27227
H         38.72853       18.82014       38.93975
H         38.94287       17.06460       39.28748
H         38.10039       18.12651       40.48059
N         43.09035       17.74415       41.12244
C         44.43305       18.20574       41.46278
C         44.38623       19.63718       41.98545
O         44.95167       19.88945       43.03842
C         45.35467       18.11671       40.21862
C         46.79155       18.55973       40.52851
O         45.37900       16.78604       39.76808
H         42.90531       17.49550       40.14007
H         44.86554       17.53869       42.24321
H         44.93637       18.77718       39.42222
H         45.63361       16.80909       38.80869
H         47.23075       17.92178       41.32492
H         47.41704       18.46942       39.61524
H         46.82029       19.62001       40.85611
N         43.75587       20.63226       41.29032
C         43.75296       22.02928       41.73630
C         43.00657       22.26652       43.05486
O         43.06880       23.38426       43.54821
C         43.18653       22.96102       40.63285
C         41.66277       22.84194       40.45851
C         41.14512       23.69804       39.29763
C         39.60612       23.75386       39.23723
N         38.98987       22.43228       39.11507
H         43.31588       20.39151       40.38930
H         44.81888       22.31660       41.87867
H         43.70684       22.73469       39.67631
H         43.41329       24.01784       40.89726
H         41.17343       23.18497       41.39387
H         41.39772       21.78788       40.26551
H         41.54971       23.29643       38.34299
H         41.50598       24.74254       39.41870
H         39.31730       24.37357       38.36007
H         39.21501       24.25374       40.15165
H         39.12680       21.88998       39.99589
H         37.96102       22.55208       38.97432
H         39.38908       21.91102       38.30175
N         42.27187       21.29053       43.67034
C         41.53495       21.49242       44.91768
C         42.14492       20.69030       46.06452
O         41.67357       20.83338       47.18468
C         40.05260       21.09056       44.72775
C         39.34959       21.88554       43.61988
C         37.92824       21.42763       43.42684
O         37.68036       20.26207       43.16653
O         36.91888       22.31029       43.49855
H         42.21541       20.36039       43.24267
H         41.58016       22.55994       45.22546
H         39.49913       21.23872       45.68200
H         40.01411       20.01339       44.45703
H         39.88737       21.73207       42.66662
H         39.36444       22.96984       43.86322
N         43.19708       19.84227       45.88086
C         43.81405       19.11345       46.96632
H         44.23524       19.82512       47.70699
H         43.07187       18.45390       47.45889
H         44.64200       18.48404       46.57264
H         43.58945       19.69644       44.94818
Ca        34.48156       19.23531       42.52952
O         36.57882       20.36515       39.87028
H         36.41315       20.01065       38.96093
H         35.69487       20.33250       40.31073
O         35.75944       17.14891       40.76983
H         35.53234       17.61263       39.92553
H         35.94699       16.21598       40.49801

Ca 1.0



