%chk=holoCaM.loop3.water1.frame50.chk
%nprocshared=20
%mem=10GB
%nosave
#b3lyp/svp scf=(tight,noincore,xqc) Test 
#IOP(5/87=12) Density=Current Pop=(MK,readradii) iop(6/33=2) iop(6/42=6)

holoCaM.loop3.water1.frame50 

   0  1 
C         90.83027       76.67092       35.20518
C         90.05510       77.89361       35.57403
O         89.71949       78.03438       36.74094
H         91.77807       76.65188       35.78412
H         90.22934       75.77280       35.45764
H         91.06989       76.65672       34.12266
N         89.75935       78.84621       34.64291
C         89.04358       80.05958       34.99818
C         87.59023       79.72911       35.29146
O         86.82127       79.52979       34.36025
C         89.18442       81.11718       33.88636
C         88.70363       82.44169       34.36777
O         89.25947       82.94494       35.48596
O         87.85943       83.06297       33.75069
H         90.10944       78.72970       33.67962
H         89.54362       80.47058       35.90544
H         88.67659       80.79838       32.94851
H         90.25882       81.25545       33.65521
N         87.17311       79.54713       36.57481
C         85.82357       79.10823       36.90545
C         84.83543       80.22961       36.69848
O         83.88812       80.04440       35.94692
C         85.74537       78.56404       38.34781
C         86.64007       77.32751       38.60243
C         86.35228       76.16237       37.63644
C         87.13045       74.89696       38.01299
N         86.86221       73.82243       37.05552
H         87.86318       79.64596       37.33415
H         85.52878       78.27213       36.23710
H         84.69243       78.26552       38.54752
H         86.01859       79.35911       39.07523
H         86.44693       76.99210       39.64455
H         87.71347       77.60166       38.52869
H         86.65099       76.44880       36.60576
H         85.26539       75.92945       37.65145
H         86.82370       74.56803       39.03052
H         88.22187       75.11309       38.02365
H         85.83731       73.61541       37.01970
H         87.19657       74.09893       36.10338
H         87.37080       72.95928       37.35386
N         85.00565       81.43273       37.31887
C         84.09181       82.55767       37.13183
C         83.87840       82.83439       35.65052
O         82.73846       82.75864       35.21234
C         84.53102       83.81281       37.92604
C         85.88861       84.35689       37.57600
O         86.99252       83.61948       37.79520
O         86.00102       85.49269       37.14386
H         85.82435       81.54209       37.93299
H         83.10352       82.26703       37.55501
H         84.53966       83.56951       39.01026
H         83.76743       84.60584       37.76560
N         84.92394       83.07138       34.80777
C         84.76553       83.15959       33.36048
C         85.18894       84.48463       32.76393
O         85.05741       84.62002       31.55519
H         85.87432       83.11200       35.19791
H         83.70631       82.99902       33.06483
H         85.35872       82.34484       32.89222
N         85.66023       85.52276       33.51615
C         85.92503       86.84002       32.93420
C         87.05416       86.86238       31.89669
O         87.16077       87.86184       31.20007
C         86.17093       87.90157       34.03655
C         87.41753       87.67299       34.85382
N         87.76866       88.53516       35.83313
O         88.12098       86.70722       34.63382
H         85.74619       85.40337       34.53456
H         84.98991       87.14032       32.41047
H         85.29897       87.91193       34.72635
H         86.24746       88.90188       33.56072
H         87.19174       89.36239       36.03874
H         88.62646       88.37491       36.38318
N         87.93799       85.83021       31.74505
C         88.97673       85.79657       30.72200
C         90.39229       85.80994       31.27345
O         91.30809       85.71991       30.46741
H         87.87574       85.01907       32.36771
H         88.89210       86.66353       30.03095
H         88.83171       84.87611       30.11807
N         90.66566       85.99499       32.60005
C         92.01847       86.15422       33.13132
C         92.27888       85.18716       34.27862
O         91.35571       84.51398       34.70843
C         92.22078       87.61625       33.60677
C         92.03065       88.60551       32.47565
C         90.74798       88.89236       31.97003
C         93.14402       89.24488       31.90559
C         90.58775       89.77707       30.90090
C         92.98172       90.12705       30.83332
C         91.70253       90.39112       30.32335
O         91.53356       91.22914       29.28094
H         89.89044       86.11199       33.25654
H         92.77066       85.94505       32.33961
H         93.25726       87.70936       33.99338
H         91.53636       87.87557       34.44522
H         89.86708       88.43338       32.39899
H         94.14157       89.04576       32.27641
H         89.59530       89.98002       30.51763
H         93.85217       90.59845       30.39544
H         92.28028       91.66174       28.84284
N         93.52023       85.09828       34.84797
C         93.83170       84.27704       36.02289
C         95.07747       84.84944       36.69949
O         96.15770       84.75602       36.13070
C         94.07134       82.75390       35.68189
C         92.85179       82.06380       35.01879
C         94.48793       81.97647       36.95097
C         93.08825       80.59258       34.65341
H         94.25203       85.73138       34.49029
H         92.99241       84.37551       36.74178
H         94.91853       82.69581       34.96250
H         92.63100       82.57350       34.06132
H         91.96721       82.12585       35.69011
H         94.75902       80.92775       36.72547
H         95.40598       82.39946       37.38772
H         93.67859       81.99277       37.70839
H         92.20985       80.19073       34.11411
H         93.97447       80.49761       33.99181
H         93.21920       79.95816       35.55239
N         94.99829       85.46096       37.91895
C         96.18099       85.94740       38.63329
C         96.99290       84.78036       39.18356
O         96.55634       83.64907       39.07529
C         95.76610       86.89161       39.77950
O         94.94513       86.22557       40.69728
H         94.06718       85.59537       38.34288
H         96.80466       86.54354       37.93127
H         95.20979       87.75314       39.34870
H         96.67418       87.27543       40.29617
H         94.78124       86.86319       41.43990
N         98.18630       84.97894       39.80815
C         98.94067       83.88962       40.42822
C         98.15709       83.29548       41.58659
O         97.98608       82.08579       41.63768
C        100.29435       84.39388       40.93498
H         98.56416       85.93749       39.85444
H         99.15906       83.10139       39.67172
H        100.86625       83.55173       41.38273
H        100.88440       84.79714       40.08454
H        100.16808       85.19022       41.69773
N         97.62301       84.11457       42.53754
C         96.84388       83.65334       43.68474
C         95.69221       82.76279       43.25858
O         95.56837       81.66425       43.78185
C         96.30139       84.86213       44.45963
H         97.75798       85.13109       42.41951
H         97.50408       83.07790       44.37131
H         97.14215       85.49866       44.80921
H         95.63859       85.47858       43.81379
H         95.72368       84.52642       45.34684
N         94.83501       83.16281       42.28004
C         93.72384       82.35388       41.78812
C         94.21621       80.98521       41.34470
O         93.71929       79.98881       41.85088
C         93.00758       83.10903       40.64372
C         91.78711       82.35081       40.09619
C         91.03443       83.13854       39.05585
O         91.41091       84.38700       38.71554
O         90.05401       82.64495       38.52301
H         95.00608       84.07909       41.84625
H         92.98888       82.21602       42.61304
H         93.72139       83.30754       39.81379
H         92.66464       84.08823       41.04629
H         91.08809       82.12514       40.92957
H         92.12264       81.39474       39.64055
N         95.22080       80.86850       40.43526
C         95.77611       79.60323       40.00226
H         96.85032       79.56228       40.28269
H         95.26174       78.73419       40.46256
H         95.69136       79.52315       38.89905
H         95.63917       81.71962       40.04950
Ca        88.97318       84.96054       36.42141
O         88.91088       86.68089       38.67949
H         88.23025       87.36333       38.90384
H         89.77810       87.15197       38.75749

Ca 1.0



