%chk=holoCaM.loop3.water2.frame151.chk
%nprocshared=20
%mem=10GB
%nosave
#b3lyp/svp scf=(tight,noincore,xqc) Test 
#IOP(5/87=12) Density=Current Pop=(MK,readradii) iop(6/33=2) iop(6/42=6)

holoCaM.loop3.water2.frame151 

   0  1 
C          3.03935       71.99945        4.71186
C          3.40789       72.20347        6.14703
O          4.58943       72.28184        6.45471
H          2.42946       72.85867        4.36518
H          3.95077       71.92276        4.08147
H          2.45215       71.06281        4.60732
N          2.43270       72.26536        7.09518
C          2.72627       72.41619        8.50969
C          2.68850       71.03308        9.12432
O          1.64568       70.39265        9.09724
C          1.71276       73.38460        9.13945
C          2.05937       73.82674       10.52412
O          3.19436       73.45891       11.13632
O          1.29209       74.56303       11.10967
H          1.45188       72.12089        6.80688
H          3.74207       72.85585        8.62751
H          0.70776       72.90662        9.14533
H          1.64244       74.30387        8.53053
N          3.83491       70.46368        9.58769
C          3.91362       69.05494        9.96262
C          3.21186       68.82492       11.29130
O          2.21998       68.10901       11.31217
C          5.38202       68.56299        9.89007
C          5.89838       68.72638        8.43566
C          7.31300       68.19258        8.19372
C          7.69932       68.41555        6.71734
N          9.02879       67.88673        6.42050
H          4.70187       71.02131        9.55119
H          3.37709       68.45577        9.19068
H          5.41667       67.48618       10.16331
H          6.02818       69.13069       10.59484
H          5.89154       69.79903        8.14874
H          5.20915       68.18306        7.75198
H          7.34044       67.10610        8.42530
H          8.03574       68.72325        8.85070
H          7.68106       69.50540        6.48822
H          6.95709       67.91319        6.05651
H          9.04898       66.85498        6.58901
H          9.24815       68.06723        5.41342
H          9.74702       68.36118        7.01360
N          3.62716       69.45243       12.42936
C          2.87489       69.39025       13.69413
C          1.45381       69.96932       13.56168
O          0.65138       69.72386       14.45221
C          3.62121       70.04321       14.89896
C          4.07758       71.44410       14.61455
O          3.47166       72.51785       15.13415
O          4.96803       71.63892       13.80430
H          4.49416       69.99166       12.35650
H          2.74923       68.31402       13.94845
H          4.51857       69.44839       15.17071
H          2.94006       70.03694       15.77856
N          1.04593       70.67395       12.46338
C         -0.34724       70.99949       12.18887
C         -1.01247       72.02873       13.08085
O         -2.19992       72.24039       12.87461
H          1.72143       70.89580       11.72301
H         -0.93561       70.05580       12.23084
H         -0.42448       71.38686       11.14952
N         -0.36803       72.71877       14.06852
C         -1.08720       73.67545       14.91873
C         -1.63686       74.89652       14.16136
O         -2.37901       75.65546       14.76974
C         -0.23078       74.10848       16.13892
C          1.00733       74.91021       15.82122
N          1.82373       75.32954       16.81359
O          1.28107       75.19100       14.67144
H          0.62702       72.52637       14.25167
H         -1.96001       73.13007       15.34306
H          0.07985       73.19474       16.69021
H         -0.86227       74.71975       16.81904
H          1.61496       75.10763       17.79704
H          2.66853       75.87938       16.59550
N         -1.31175       75.16579       12.85989
C         -1.83098       76.30168       12.10160
C         -0.78028       77.36442       11.79874
O         -1.12496       78.35448       11.17235
H         -0.66039       74.54395       12.37374
H         -2.64168       76.81253       12.66298
H         -2.27215       75.92175       11.15451
N          0.49468       77.26221       12.27010
C          1.51012       78.30607       12.18407
C          2.78230       77.77243       11.55617
O          3.29652       76.76136       12.01146
C          1.83422       78.77932       13.61496
C          0.69572       79.56229       14.21667
C         -0.03125       79.06354       15.30962
C          0.36941       80.82436       13.69171
C         -1.07012       79.81868       15.86580
C         -0.66055       81.57998       14.25420
C         -1.38457       81.07969       15.34486
O         -2.37765       81.80242       15.90087
H          0.75510       76.42670       12.79467
H          1.15828       79.18025       11.59524
H          2.72741       79.44226       13.61717
H          2.07873       77.89066       14.23804
H          0.20149       78.09240       15.72867
H          0.92507       81.23089       12.85547
H         -1.62756       79.42630       16.70676
H         -0.89015       82.55551       13.84401
H         -2.61437       82.68372       15.57735
N          3.38229       78.45870       10.53999
C          4.65075       78.06390        9.93893
C          5.68702       79.14426       10.23904
O          5.58688       80.24608        9.71882
C          4.43372       77.80678        8.41525
C          3.52283       76.56022        8.23900
C          5.75679       77.63098        7.65179
C          3.16427       76.24475        6.78522
H          2.94090       79.32464       10.19530
H          5.02213       77.11962       10.39450
H          3.93098       78.70062        7.98255
H          2.56960       76.72266        8.78627
H          4.02300       75.66916        8.68127
H          6.40893       78.51784        7.78064
H          6.28401       76.72278        7.98858
H          5.57838       77.54938        6.56123
H          2.64416       77.10849        6.32298
H          4.06279       75.98119        6.19311
H          2.48990       75.36668        6.74455
N          6.70352       78.88305       11.11606
C          7.77207       79.82859       11.44839
C          8.74216       79.98593       10.28418
O          8.52284       79.38594        9.24617
C          8.53183       79.32556       12.69685
O          9.16553       78.09880       12.44115
H          6.69944       77.96970       11.59355
H          7.32988       80.81279       11.71855
H          7.81385       79.24163       13.54734
H          9.30157       80.05519       13.02244
H          8.75073       77.41941       13.03311
N          9.86884       80.74377       10.39444
C         10.89508       80.79912        9.35415
C         11.49556       79.42085        9.11563
O         11.54499       78.98031        7.97698
C         12.01464       81.76511        9.75618
H         10.02508       81.27167       11.26727
H         10.45282       81.18651        8.40836
H         12.78108       81.81221        8.95196
H         11.60001       82.78478        9.90130
H         12.50588       81.43957       10.69791
N         11.95025       78.67991       10.16833
C         12.55746       77.35546       10.04265
C         11.67447       76.40340        9.26395
O         12.14034       75.81112        8.29978
C         12.82331       76.77091       11.43870
H         11.83954       79.07606       11.11435
H         13.53372       77.44635        9.51723
H         11.87493       76.66590       12.01032
H         13.29739       75.76941       11.35591
H         13.50447       77.43583       12.01019
N         10.37751       76.22335        9.62374
C          9.46257       75.32062        8.93398
C          9.35585       75.69432        7.46215
O          9.64439       74.86008        6.61566
C          8.08192       75.34582        9.62567
C          8.15072       74.77922       11.05556
C          6.81527       74.84786       11.73266
O          5.85846       74.25380       11.26601
O          6.67056       75.55543       12.86879
H         10.02832       76.77653       10.41884
H          9.85106       74.27922        8.99593
H          7.36559       74.72810        9.03976
H          7.71021       76.39232        9.66806
H          8.87855       75.34898       11.66744
H          8.48563       73.72065       11.02149
N          8.98487       76.94479        7.08535
C          8.92050       77.36580        5.70333
H          8.61993       78.43498        5.64995
H          9.91908       77.25970        5.22815
H          8.17402       76.75758        5.15200
H          8.76097       77.63013        7.80739
Ca         3.16891       73.81357       13.34992
O          5.79408       74.27058       15.48045
H          6.16777       74.60775       16.33255
H          6.48924       73.66166       15.12537
O          4.57742       76.89286       14.63277
H          4.87713       77.71552       14.17027
H          4.82869       77.03336       15.57957

Ca 1.0



