%chk=holoCaM-CaMKII.loop2.water1.frame329.chk
%nprocshared=20
%mem=10GB
%nosave
#b3lyp/svp scf=(tight,noincore,xqc) Test 
#IOP(5/87=12) Density=Current Pop=(MK,readradii) iop(6/33=2) iop(6/42=6)

holoCaM-CaMKII.loop2.water1.frame329 

   -2  1 
C         40.91548       61.13428       50.40046
C         39.87898       61.45130       49.36073
O         39.61175       60.62263       48.50271
H         41.73876       61.87733       50.35164
H         40.45206       61.17632       51.40969
H         41.33670       60.11786       50.24829
N         39.23197       62.64737       49.39920
C         38.16548       63.01439       48.47453
C         38.66305       63.11828       47.04212
O         39.54955       63.91813       46.77576
C         37.54152       64.35624       48.90405
C         36.41612       64.75691       47.99519
O         35.45046       64.02534       47.85395
O         36.47976       65.91853       47.31858
H         39.48360       63.30512       50.15460
H         37.36777       62.24566       48.54369
H         38.31850       65.15222       48.89929
H         37.14648       64.26190       49.93868
N         38.09208       62.35859       46.06143
C         38.44370       62.45592       44.65297
C         37.20504       62.77573       43.81507
O         36.92989       62.06275       42.86012
C         39.10370       61.13961       44.21712
H         37.36365       61.68434       46.32066
H         39.17956       63.27279       44.49197
H         40.00755       60.94611       44.83289
H         38.39900       60.28915       44.35014
H         39.41093       61.19043       43.15080
N         36.41609       63.85192       44.11512
C         35.25008       64.26030       43.32201
C         34.62348       65.55200       43.85986
O         34.55334       66.51105       43.10363
C         34.18614       63.14212       43.11669
C         33.69365       62.39412       44.32632
O         34.23390       62.57495       45.54266
O         32.82533       61.54809       44.18349
H         36.67347       64.42159       44.93508
H         35.60535       64.50060       42.29351
H         34.59025       62.37204       42.42779
H         33.31823       63.59527       42.58849
N         34.16855       65.66608       45.14222
C         33.58696       66.88343       45.69864
C         32.21297       66.67243       46.31518
O         31.69536       67.61589       46.89586
H         34.27996       64.87676       45.78315
H         33.51476       67.69147       44.93978
H         34.26000       67.23747       46.50720
N         31.55524       65.47980       46.23837
C         30.24017       65.23753       46.84097
C         30.23401       65.24344       48.38848
O         29.15563       65.09441       48.94707
C         29.62266       63.93239       46.26939
C         30.56184       62.73251       46.36012
N         29.92320       61.48803       45.94443
O         31.03431       62.60134       47.64742
H         31.98465       64.72560       45.68586
H         29.54973       66.04860       46.51997
H         29.40659       64.07804       45.18951
H         28.65954       63.71749       46.78209
H         29.58292       61.57660       44.96138
H         29.12471       61.26550       46.58224
N         31.35219       65.46026       49.14930
C         31.31289       65.63158       50.60427
C         31.13759       64.36518       51.43662
O         31.09946       64.48933       52.65231
H         32.25529       65.62885       48.68790
H         30.51767       66.36660       50.85972
H         32.27790       66.07586       50.92927
N         31.04908       63.12650       50.87910
C         30.90327       61.88138       51.63168
C         32.01208       60.89911       51.27821
O         32.19411       60.60476       50.10783
C         29.53923       61.21977       51.31529
C         28.36940       62.04899       51.84206
O         29.37730       61.03124       49.93042
H         31.07581       63.05475       49.86423
H         30.92713       62.06409       52.72897
H         29.48293       60.23997       51.85087
H         29.66851       60.10628       49.71924
H         28.45747       62.17578       52.94268
H         28.34242       63.04825       51.36021
H         27.41509       61.52158       51.62870
N         32.72876       60.27268       52.25588
C         33.65907       59.17190       51.98430
C         32.92224       58.05488       51.25323
O         31.87983       57.61330       51.71550
C         34.30191       58.64474       53.31196
C         35.28749       59.71094       53.86278
C         35.03064       57.29692       53.10024
C         35.90402       59.35714       55.21854
H         32.54248       60.53202       53.23645
H         34.48921       59.52640       51.33319
H         33.48974       58.46013       54.05048
H         34.75802       60.67811       53.98780
H         36.11178       59.86498       53.13047
H         35.84873       57.39637       52.35693
H         35.44151       56.90233       54.04945
H         34.32057       56.51772       52.75687
H         36.52560       58.44098       55.16456
H         36.57177       60.18284       55.54263
H         35.10710       59.22186       55.97910
N         33.47432       57.50976       50.13070
C         32.89781       56.39178       49.39194
C         33.65441       55.12923       49.73904
O         34.57961       55.18149       50.53570
C         33.01649       56.61617       47.86294
C         32.57993       57.97015       47.43934
O         33.30690       59.02076       47.84108
O         31.61833       58.12908       46.70465
H         34.39467       57.84745       49.82823
H         31.82833       56.26277       49.66683
H         32.42231       55.84521       47.32765
H         34.07879       56.52944       47.54392
N         33.32763       53.94524       49.15317
C         34.10455       52.73992       49.38475
C         35.55692       52.91484       48.92861
O         36.42535       52.67946       49.75826
C         33.43722       51.51090       48.73593
C         34.24432       50.26409       49.01282
C         34.48384       49.84572       50.33578
C         34.78744       49.52295       47.95097
C         35.26488       48.71647       50.58833
C         35.56365       48.38942       48.20907
C         35.80575       47.98918       49.52614
H         32.51727       53.90466       48.51810
H         34.10202       52.55029       50.48049
H         33.32033       51.66769       47.64634
H         32.41622       51.38272       49.15691
H         34.07763       50.39615       51.17467
H         34.61785       49.82597       46.92526
H         35.45361       48.40920       51.60890
H         35.98298       47.82471       47.38720
H         36.41286       47.11614       49.72446
N         35.93705       53.31812       47.67167
C         37.32955       53.44555       47.25729
C         38.06476       54.64543       47.86094
O         39.22822       54.80949       47.52463
C         37.23738       53.52791       45.72961
C         35.94444       54.28383       45.53755
C         35.04118       53.60747       46.56556
H         37.90956       52.52992       47.51053
H         38.13113       53.94124       45.21564
H         37.06159       52.49918       45.33668
H         36.12424       55.33696       45.85380
H         35.54035       54.28564       44.50274
H         34.22107       54.30003       46.81564
H         34.64146       52.65095       46.17014
N         37.49721       55.48719       48.77865
C         38.23656       56.57067       49.43212
C         38.46838       56.27405       50.91062
O         39.16665       57.05083       51.54929
C         37.46193       57.89702       49.33190
C         37.08420       58.29213       47.89987
C         36.23142       59.53177       47.86850
O         35.79938       59.93223       46.80066
O         35.89918       60.18495       49.00136
H         36.52339       55.34171       49.06102
H         39.23525       56.69307       48.96000
H         38.05774       58.71516       49.79454
H         36.53600       57.78071       49.92425
H         36.49366       57.47444       47.43656
H         38.00355       58.45987       47.29925
N         37.90905       55.19454       51.53142
C         38.09186       54.88452       52.93327
H         38.76350       55.60420       53.44438
H         37.10460       54.89900       53.44123
H         38.52486       53.86675       53.02632
H         37.30260       54.55388       51.01081
Ca        32.58327       61.04007       47.40928
O         33.91412       63.67075       50.17903
H         34.71812       63.18418       50.48840
H         34.19083       64.62111       50.15305

Ca 1.0



