%chk=holoCaM.loop3.water2.frame61.chk
%nprocshared=20
%mem=10GB
%nosave
#b3lyp/svp scf=(tight,noincore,xqc) Test 
#IOP(5/87=12) Density=Current Pop=(MK,readradii) iop(6/33=2) iop(6/42=6)

holoCaM.loop3.water2.frame61 

   0  1 
C         79.71806       -8.38754      112.54452
C         78.22524       -8.24444      112.64976
O         77.52801       -9.20322      112.93677
H         80.20325       -7.76563      113.32996
H         80.02851       -9.44031      112.67248
H         80.06882       -8.02075      111.55385
N         77.69374       -7.01774      112.45005
C         76.29127       -6.63430      112.54613
C         75.58753       -6.95302      111.25238
O         75.61441       -6.15160      110.32622
C         76.32634       -5.13540      112.81496
C         74.99499       -4.50278      112.85681
O         73.89530       -5.22171      113.10303
O         74.88951       -3.37521      112.43346
H         78.37660       -6.27356      112.24405
H         75.76375       -7.12961      113.39250
H         76.92488       -4.63231      112.02129
H         76.86620       -4.96799      113.76718
N         75.05282       -8.18321      111.07499
C         74.77480       -8.67059      109.72967
C         73.42981       -8.18294      109.20643
O         73.18659       -8.22837      108.00811
C         75.01760      -10.18646      109.63086
C         76.25478      -10.60142      110.45289
C         76.62583      -12.05564      110.25118
C         77.38313      -12.31496      108.95292
N         78.67538      -11.61596      108.98192
H         75.04370       -8.81642      111.88480
H         75.56236       -8.22286      109.08796
H         75.17509      -10.44482      108.56440
H         74.14915      -10.75741      110.02193
H         76.02675      -10.55034      111.52918
H         77.09747       -9.89890      110.29196
H         75.69272      -12.65708      110.31031
H         77.30508      -12.34297      111.07949
H         76.77748      -12.00765      108.07463
H         77.55796      -13.41302      108.88737
H         79.22082      -11.94291      109.81471
H         79.22849      -11.79280      108.11892
H         78.55136      -10.58285      109.01839
N         72.53130       -7.66060      110.08732
C         71.29887       -6.95753      109.76503
C         71.57508       -5.49259      109.38734
O         70.80590       -4.91141      108.63072
C         70.30171       -7.00599      110.96284
C         70.85639       -6.71118      112.36157
O         70.54130       -5.67460      112.89882
O         71.65630       -7.52977      113.08048
H         72.80033       -7.67152      111.06866
H         70.78767       -7.46851      108.91644
H         69.78287       -7.98528      110.99104
H         69.53200       -6.23094      110.73017
N         72.64770       -4.83742      109.91796
C         73.03830       -3.46227      109.62647
C         72.37424       -2.40453      110.50283
O         72.38274       -1.24026      110.12699
H         73.27117       -5.37262      110.52509
H         72.93256       -3.24441      108.54409
H         74.12518       -3.38216      109.82721
N         71.79994       -2.73280      111.69287
C         71.01511       -1.80660      112.50825
C         71.83259       -0.84817      113.39517
O         71.23270       -0.03126      114.07742
C         69.99642       -2.64522      113.29961
C         70.45688       -3.08433      114.65795
N         69.60622       -2.93901      115.68828
O         71.58025       -3.50718      114.84791
H         71.80464       -3.72413      111.95803
H         70.39664       -1.19287      111.81877
H         69.61761       -3.49052      112.68786
H         69.11018       -2.01416      113.46808
H         68.63170       -2.67809      115.48466
H         69.90549       -3.08493      116.65987
N         73.18989       -0.92466      113.47402
C         74.03357       -0.06501      114.30154
C         74.58305       -0.76142      115.51563
O         75.39491       -0.16669      116.20889
H         73.64870       -1.65375      112.94314
H         73.46512        0.81250      114.67235
H         74.89980        0.29330      113.71454
N         74.09529       -1.96727      115.89904
C         74.36204       -2.58170      117.17579
C         74.79719       -4.06288      116.98950
O         73.94749       -4.89910      116.20030
C         73.12522       -2.42009      118.09073
C         72.64570       -0.97192      118.17829
C         71.80685       -0.37347      117.20698
C         73.08006       -0.19299      119.25454
C         71.43170        0.97968      117.32587
C         72.71303        1.14549      119.36710
C         71.89513        1.73795      118.40322
O         71.57439        3.04132      118.50084
H         73.39582       -2.40027      115.31875
H         75.20374       -2.04883      117.67988
H         73.42903       -2.75596      119.10737
H         72.30847       -3.09268      117.78120
H         71.45343       -0.94586      116.36262
H         73.73054       -0.62430      119.99793
H         70.80042        1.46096      116.58511
H         73.07681        1.72955      120.20086
H         71.97931        3.59515      119.18400
N         75.14404       -4.66238      118.29005
C         75.53966       -6.08588      118.29009
C         75.16667       -6.63017      119.67403
O         75.48907       -5.99480      120.67026
C         77.06079       -6.31454      117.89784
C         77.40013       -5.75531      116.49673
C         77.39000       -7.81161      117.87396
C         78.86433       -5.93778      116.03515
H         75.85699       -4.06985      118.79245
H         74.93245       -6.65181      117.56245
H         77.71616       -5.81289      118.63731
H         77.21639       -4.67148      116.50069
H         76.71428       -6.24523      115.76469
H         76.97321       -8.32854      118.75193
H         76.98264       -8.26880      116.94659
H         78.48943       -7.95767      117.87553
H         79.57772       -5.37054      116.66738
H         79.19079       -6.99827      116.01640
H         78.96805       -5.54110      115.00525
N         74.46439       -7.79551      119.81215
C         74.13174       -8.35996      121.10859
C         75.15060       -9.36815      121.57115
O         76.04818       -9.73609      120.83294
C         72.74516       -9.00316      121.12550
O         72.82564      -10.32784      120.66994
H         74.18294       -8.30812      118.98303
H         74.11662       -7.53690      121.84690
H         72.04334       -8.39839      120.51475
H         72.43993       -9.01215      122.19036
H         71.92591      -10.69785      120.50564
N         75.04516       -9.83616      122.83953
C         75.99283      -10.73630      123.46702
C         75.91862      -12.15441      122.92425
O         76.86459      -12.90175      123.12585
C         75.78802      -10.66959      124.97919
H         74.28336       -9.45258      123.41350
H         77.01446      -10.35213      123.25886
H         75.91443       -9.60818      125.30680
H         74.76785      -11.01514      125.25556
H         76.53484      -11.28330      125.50568
N         74.87305      -12.57182      122.16144
C         74.92189      -13.77625      121.35336
C         75.45164      -13.40751      119.96212
O         76.24424      -14.15384      119.40843
C         73.53548      -14.44237      121.33082
H         74.07622      -11.94049      122.00987
H         75.60604      -14.53015      121.79543
H         73.26341      -14.77597      122.35824
H         72.75673      -13.73507      120.97139
H         73.53767      -15.35184      120.69203
N         75.09301      -12.23511      119.36455
C         75.46247      -11.82841      118.00860
C         76.97139      -11.70873      117.77885
O         77.42189      -11.89433      116.65600
C         74.75372      -10.50596      117.66152
C         74.73877      -10.18997      116.17835
C         73.96535       -8.94943      115.81542
O         74.02184       -8.53798      114.66916
O         73.22401       -8.28202      116.72165
H         74.47132      -11.62172      119.88426
H         75.05332      -12.60342      117.34813
H         75.31230       -9.71930      118.17693
H         73.68661      -10.56517      117.98171
H         74.27759      -11.07398      115.69260
H         75.77612      -10.03114      115.82985
N         77.79579      -11.37613      118.80819
C         79.23194      -11.22132      118.73049
H         79.69080      -11.87208      117.95980
H         79.49377      -10.15592      118.55748
H         79.65264      -11.50188      119.72276
H         77.38218      -11.23898      119.72854
Ca        72.47860       -6.30677      114.91802
O         71.54644       -5.79343      117.45220
H         71.29584       -6.67643      117.81936
H         71.30651       -5.15107      118.16165
O         70.07920       -7.68967      115.68902
H         69.17533       -7.31545      115.54314
H         69.94220       -8.44709      116.31042

Ca 1.0



