%chk=holoCaM.loop1.water2.frame83.chk
%nprocshared=20
%mem=10GB
%nosave
#b3lyp/svp scf=(tight,noincore,xqc) Test 
#IOP(5/87=12) Density=Current Pop=(MK,readradii) iop(6/33=2) iop(6/42=6)

holoCaM.loop1.water2.frame83 

   0  1 
C          2.17544       20.58021       91.69414
C          2.01408       21.50052       90.52374
O          0.96458       22.11779       90.40728
H          2.07103       21.16044       92.63509
H          1.38813       19.79868       91.65818
H          3.16961       20.08737       91.68775
N          3.02011       21.65867       89.61577
C          2.90228       22.56306       88.48108
C          1.79643       22.06923       87.55522
O          1.93396       21.01763       86.94563
C          4.24893       22.66857       87.74556
C          4.27608       23.72116       86.68023
O          5.28457       23.84760       86.00996
O          3.22905       24.54502       86.47326
H          3.90284       21.14402       89.75915
H          2.66133       23.57121       88.89122
H          4.49854       21.68248       87.29724
H          5.04522       22.93069       88.47648
N          0.62407       22.75064       87.49631
C         -0.56377       22.27550       86.79584
C         -0.43704       22.42352       85.28844
O         -0.66006       21.45173       84.58084
C         -1.79710       23.02419       87.34769
C         -3.13984       22.39588       86.95113
C         -4.27260       23.05536       87.75446
C         -5.62803       22.39052       87.49173
N         -6.66382       22.97777       88.34309
H          0.53929       23.57853       88.09995
H         -0.72283       21.20706       87.06791
H         -1.78538       24.09348       87.05814
H         -1.73189       22.95864       88.45766
H         -3.11833       21.31434       87.20963
H         -3.31307       22.50079       85.85810
H         -4.32993       24.13880       87.51023
H         -4.04591       22.94935       88.83900
H         -5.55547       21.30243       87.71487
H         -5.90589       22.51453       86.42219
H         -6.42107       22.83713       89.35154
H         -6.75893       24.00030       88.14577
H         -7.57665       22.50595       88.15121
N         -0.08256       23.61929       84.73222
C         -0.04381       23.87058       83.28850
C          1.37596       23.99902       82.72667
O          1.50817       24.26466       81.53964
C         -0.95787       25.06964       82.93675
C         -0.55397       26.39321       83.52770
O          0.54466       26.50883       84.29077
O         -1.23655       27.38153       83.31093
H          0.16460       24.38711       85.37142
H         -0.47706       23.00423       82.74254
H         -1.98597       24.83576       83.29041
H         -0.99757       25.18475       81.83172
N          2.47453       23.69045       83.47493
C          3.81186       23.54681       82.91347
C          4.46605       24.83459       82.46998
O          4.81187       24.93727       81.30115
H          2.34876       23.40240       84.45307
H          3.76499       22.83051       82.06264
H          4.47647       23.09282       83.67588
N          4.72668       25.83577       83.36095
C          5.46101       27.05380       83.00520
C          6.72692       27.27416       83.85290
O          7.50829       28.14039       83.48563
C          4.50277       28.26256       83.04618
C          3.84547       28.40775       84.38519
O          2.52436       28.23372       84.53032
O          4.51306       28.63935       85.36699
H          4.37991       25.72807       84.32431
H          5.82551       26.97495       81.95755
H          3.70937       28.09400       82.28689
H          5.03902       29.19988       82.78279
N          7.00077       26.55703       84.98573
C          8.22762       26.69008       85.76781
C          8.00802       27.31664       87.13555
O          8.95778       27.36677       87.90476
H          6.31697       25.88142       85.33414
H          8.98420       27.31164       85.24291
H          8.66291       25.67441       85.89115
N          6.81805       27.88740       87.47801
C          6.56828       28.60789       88.72351
C          5.28682       28.11231       89.38533
O          4.58123       27.29921       88.80074
C          6.45274       30.12835       88.43071
C          7.74923       30.70830       87.83407
O          5.34926       30.39735       87.59936
H          6.06391       27.87047       86.79545
H          7.41250       28.45316       89.43085
H          6.28279       30.67035       89.38467
H          5.64527       30.35371       86.65373
H          7.62282       31.79750       87.65523
H          8.59713       30.55673       88.53313
H          7.99420       30.22580       86.86304
N          4.93063       28.56381       90.62472
C          3.70037       28.16865       91.30772
C          2.93510       29.41751       91.73285
O          3.41972       30.16700       92.57003
C          4.03928       27.23805       92.51196
C          4.65364       25.91713       91.96898
C          2.79356       26.94744       93.37074
C          5.07030       24.91755       93.04721
H          5.57483       29.19828       91.12206
H          3.04713       27.58468       90.62093
H          4.77970       27.75346       93.16375
H          5.56312       26.15304       91.37728
H          3.92368       25.41587       91.29407
H          3.05193       26.34209       94.26167
H          2.35919       27.88528       93.76845
H          2.02965       26.41088       92.77780
H          4.19613       24.55684       93.62586
H          5.52915       24.03051       92.56128
H          5.81245       25.37664       93.73250
N          1.71949       29.69617       91.18147
C          0.89091       30.83993       91.56506
C          0.25479       30.61628       92.93459
O          0.40443       29.54809       93.50941
C         -0.23690       31.06948       90.51209
C          0.33094       31.41750       89.13545
O         -1.03460       29.92148       90.40772
H          1.37900       29.07317       90.43928
H          1.52018       31.75694       91.59166
H         -0.86691       31.92811       90.83480
H         -1.82549       30.15838       89.85778
H          0.95920       32.33018       89.19661
H          0.93150       30.57503       88.74153
H         -0.50088       31.61123       88.42448
N         -0.53532       31.58317       93.48443
C         -1.34555       31.38011       94.68673
C         -2.31903       30.23438       94.47307
O         -2.54477       29.46303       95.39491
C         -2.15724       32.65369       95.04214
C         -1.24622       33.80304       95.48536
O         -2.93820       33.05171       93.94261
H         -0.61675       32.48097       92.98555
H         -0.69528       31.13837       95.55770
H         -2.82372       32.40322       95.90190
H         -3.60456       33.70550       94.27980
H         -0.65811       33.49669       96.37656
H         -0.55042       34.10350       94.67605
H         -1.86443       34.68254       95.76543
N         -2.93752       30.07787       93.26922
C         -3.90928       29.02563       92.99210
C         -3.24125       27.66662       93.14671
O         -3.69284       26.83402       93.91940
C         -4.50523       29.11681       91.54743
C         -4.77865       30.52455       90.97737
C         -5.59959       31.46050       91.86807
C         -5.60278       32.86884       91.24718
N         -6.32465       33.82290       92.08409
H         -2.69809       30.75029       92.53402
H         -4.75436       29.14649       93.70644
H         -5.43262       28.50336       91.52621
H         -3.80865       28.66312       90.81014
H         -5.27242       30.41907       89.98646
H         -3.80452       31.00990       90.77217
H         -5.13084       31.53309       92.87129
H         -6.63311       31.07011       91.98240
H         -6.06341       32.83702       90.23488
H         -4.55053       33.22077       91.13720
H         -7.32732       33.54044       92.16553
H         -5.88715       33.87075       93.03285
H         -6.26899       34.76913       91.64166
N         -2.13166       27.40407       92.39924
C         -1.39943       26.14244       92.36270
C         -0.66192       25.84866       93.66762
O         -0.09735       24.76867       93.77479
C         -0.38752       26.17910       91.17889
C         -1.10518       26.35026       89.82167
C         -0.16536       26.55772       88.66481
O          0.64296       27.63052       88.60512
O         -0.19849       25.80399       87.71148
H         -1.80646       28.15942       91.78879
H         -2.12404       25.31945       92.17384
H          0.20828       25.23990       91.14624
H          0.30737       27.03130       91.33801
H         -1.76684       27.23699       89.82822
H         -1.74275       25.45658       89.64229
N         -0.60455       26.75025       94.69161
C          0.08590       26.51126       95.94307
H          0.87688       27.27918       96.07726
H         -0.63695       26.59721       96.78188
H          0.55780       25.50809       95.98614
H         -1.05419       27.66510       94.59543
Ca         1.73120       27.93597       86.63886
O          2.63229       30.85395       86.87200
H          2.78038       30.59500       85.92998
H          2.08945       31.67877       86.81458
O         -0.91373       29.45993       86.40053
H         -0.16850       29.81123       85.85085
H         -1.00179       28.51295       86.12440

Ca 1.0



