%chk=holoCaM-CaMKII.loop1.water2.frame475.chk
%nprocshared=20
%mem=10GB
%nosave
#b3lyp/svp scf=(tight,noincore,xqc) Test 
#IOP(5/87=12) Density=Current Pop=(MK,readradii) iop(6/33=2) iop(6/42=6)

holoCaM-CaMKII.loop1.water2.frame475 

   0  1 
C         87.79268       69.76796       62.65419
C         88.30486       70.94097       63.42934
O         88.40912       72.01618       62.85676
H         86.77861       70.00765       62.26806
H         88.46911       69.56134       61.79986
H         87.72239       68.86238       63.29123
N         88.62264       70.82159       64.75065
C         89.02141       71.96922       65.55071
C         90.31785       72.56264       65.00499
O         91.35300       71.91188       65.01417
C         89.11715       71.58794       67.03845
C         89.18456       72.76920       67.96411
O         89.21229       72.54957       69.28815
O         89.15531       73.91573       67.54490
H         88.51673       69.90263       65.20711
H         88.18741       72.70429       65.46980
H         89.98595       70.91599       67.20655
H         88.19090       71.04095       67.31951
N         90.27254       73.78938       64.42891
C         91.33754       74.40784       63.65016
C         92.25803       75.19073       64.57087
O         93.44568       74.90646       64.62752
C         90.64354       75.28471       62.57495
C         91.54547       75.90795       61.50881
C         90.72220       76.73665       60.49069
C         89.63970       75.95931       59.70303
N         90.20313       74.88159       58.88986
H         89.34873       74.22420       64.39340
H         91.90541       73.61980       63.10605
H         90.06042       76.09491       63.06036
H         89.92888       74.61206       62.05691
H         92.11495       75.11357       60.98390
H         92.27394       76.58678       62.00163
H         91.42226       77.19810       59.76240
H         90.21286       77.56183       61.03621
H         89.11394       76.67579       59.03361
H         88.86638       75.54578       60.38249
H         89.43184       74.42527       58.35036
H         90.90247       75.26916       58.21633
H         90.64932       74.15708       59.49564
N         91.74773       76.19374       65.33617
C         92.52241       76.98767       66.29365
C         92.69950       76.29632       67.65296
O         93.40633       76.84308       68.48861
C         91.89080       78.39482       66.46186
C         90.46348       78.37356       66.94761
O         89.86599       79.41992       67.13925
O         89.84317       77.19682       67.14774
H         90.75190       76.40185       65.20264
H         93.53843       77.15583       65.87300
H         91.90934       78.91328       65.47894
H         92.50752       78.98829       67.17201
N         92.11746       75.09743       67.94604
C         92.35203       74.37145       69.18768
C         91.85876       75.07751       70.43805
O         92.66434       75.32211       71.32476
H         91.52997       74.63606       67.23991
H         93.44075       74.16229       69.27799
H         91.83470       73.38961       69.13443
N         90.53671       75.37133       70.60670
C         89.97223       75.90615       71.85281
C         88.94732       74.94441       72.44912
O         88.12001       75.36626       73.24601
C         89.40685       77.33130       71.64607
C         88.29446       77.47010       70.64840
O         87.91926       78.58724       70.33088
O         87.78784       76.40857       70.00629
H         89.89513       75.15838       69.83044
H         90.76366       76.02945       72.62358
H         90.24875       77.96351       71.28745
H         89.05910       77.74797       72.61528
N         88.99154       73.61204       72.15744
C         88.07442       72.62459       72.70552
C         86.65743       72.70711       72.17049
O         85.86173       71.86480       72.56512
H         89.75164       73.25552       71.56384
H         88.07336       72.69323       73.81448
H         88.44858       71.61519       72.42772
N         86.25498       73.65920       71.28010
C         84.90697       73.72389       70.72576
C         84.94189       73.70406       69.20125
O         85.99796       73.87741       68.60410
C         84.16294       74.97715       71.26066
C         83.83452       74.86114       72.75763
O         84.89614       76.14986       71.00882
H         86.92246       74.37341       70.97288
H         84.32298       72.82801       71.03117
H         83.18358       75.07014       70.74325
H         85.62338       76.21910       71.68224
H         83.18362       73.97940       72.93624
H         84.75826       74.75625       73.36481
H         83.29086       75.77058       73.09343
N         83.79472       73.45100       68.51161
C         83.67847       73.41004       67.05602
C         82.63613       74.43240       66.64137
O         81.55480       74.44759       67.21811
C         83.28110       71.98018       66.56470
C         84.39061       70.95673       66.92740
C         83.03541       71.98077       65.03681
C         84.03501       69.50770       66.57321
H         82.93837       73.25836       69.05679
H         84.64602       73.65498       66.56497
H         82.33457       71.68089       67.06722
H         84.57020       70.98684       68.02240
H         85.33975       71.22856       66.41301
H         82.21366       72.67258       64.77312
H         83.95336       72.28457       64.48833
H         82.70660       70.99055       64.66767
H         83.09896       69.20474       67.08823
H         83.91555       69.36294       65.48062
H         84.85476       68.83453       66.90035
N         82.86155       75.25822       65.58265
C         81.87435       76.20276       65.07690
C         81.29729       75.67640       63.78106
O         81.75694       74.65914       63.28313
C         82.50210       77.60808       64.84001
C         83.16880       78.19528       66.08446
O         83.41670       77.58636       63.77395
H         83.72896       75.13616       65.04786
H         81.03665       76.30152       65.80148
H         81.69160       78.30913       64.55010
H         84.23153       77.12015       64.08527
H         82.44256       78.27551       66.91779
H         84.02231       77.55563       66.39014
H         83.56208       79.20785       65.84870
N         80.28341       76.33103       63.16327
C         79.77661       75.93733       61.85346
C         80.87737       76.06188       60.81298
O         81.00983       75.17973       59.97753
C         78.56308       76.79990       61.43771
C         77.35955       76.54747       62.35544
O         78.90624       78.16225       61.45207
H         79.88587       77.16172       63.62870
H         79.42556       74.87971       61.87863
H         78.27270       76.49309       60.40485
H         78.23084       78.63504       60.89966
H         77.07552       75.47333       62.32291
H         77.58345       76.82571       63.40585
H         76.49081       77.14544       62.00929
N         81.71706       77.13661       60.82666
C         82.75966       77.36427       59.83238
C         83.72644       76.19186       59.76308
O         83.94397       75.64871       58.68932
C         83.53395       78.66227       60.16999
C         84.30170       79.17551       58.94718
C         85.12445       80.42803       59.26695
C         85.64036       81.06148       57.96725
N         86.51171       82.20245       58.23946
H         81.59753       77.83434       61.57676
H         82.25637       77.50226       58.84996
H         84.20671       78.49856       61.04209
H         82.81397       79.46418       60.44583
H         83.54347       79.42282       58.17124
H         84.98248       78.39480       58.54427
H         85.97074       80.14194       59.93012
H         84.49759       81.18053       59.79435
H         84.76452       81.40275       57.36896
H         86.20076       80.31015       57.36870
H         86.02183       82.90358       58.84109
H         87.38386       81.87375       58.71370
H         86.77010       82.65481       57.33263
N         84.32042       75.74356       60.90215
C         85.25908       74.62556       60.97505
C         84.61064       73.37679       60.39683
O         85.19122       72.77438       59.50457
C         85.74378       74.44207       62.44146
C         86.53535       75.69641       62.90113
C         86.93951       75.70476       64.35012
O         88.05383       76.08131       64.66434
O         86.04168       75.47461       65.31982
H         84.05084       76.21276       61.77550
H         86.16328       74.85089       60.36565
H         86.39971       73.55119       62.52017
H         84.86083       74.27759       63.09645
H         85.92573       76.60234       62.75927
H         87.43646       75.82654       62.26554
N         83.36482       72.99008       60.78891
C         82.63305       71.89487       60.18156
H         81.71282       72.29572       59.70259
H         83.22140       71.36961       59.40021
H         82.33761       71.16313       60.96039
H         82.88053       73.53274       61.51142
Ca        87.76383       76.83830       67.84635
O         86.61095       78.82942       65.85378
H         86.06585       79.64173       65.70670
H         87.34235       79.13290       66.44656
O         84.59519       77.73690       68.82525
H         85.30589       77.06531       68.67376
H         85.05338       78.60872       68.73378

Ca 1.0



