%chk=holoCaM-CaMKII.loop3.water2.frame181.chk
%nprocshared=20
%mem=10GB
%nosave
#b3lyp/svp scf=(tight,noincore,xqc) Test 
#IOP(5/87=12) Density=Current Pop=(MK,readradii) iop(6/33=2) iop(6/42=6)

holoCaM-CaMKII.loop3.water2.frame181 

   0  1 
C        100.59569       51.17106       17.47390
C        100.19262       50.38969       18.69010
O         99.31522       50.81363       19.42714
H        101.67882       51.41304       17.52565
H        100.41301       50.55299       16.56794
H        100.01606       52.11275       17.38820
N        100.82775       49.22122       18.95601
C        100.52766       48.32653       20.06383
C        101.69511       48.42132       21.01835
O        102.52068       47.52507       21.09146
C        100.24788       46.93621       19.44955
C        100.02780       45.76523       20.37235
O        100.69986       44.76175       20.20029
O         99.06513       45.72581       21.31372
H        101.60050       48.94383       18.32869
H         99.61918       48.63515       20.62593
H        101.09107       46.66855       18.77517
H         99.33813       47.02985       18.82143
N        101.82922       49.56141       21.75860
C        102.93455       49.83093       22.67771
C        102.92944       48.92898       23.91666
O        103.86304       49.03002       24.70059
C        102.90752       51.31723       23.12106
C        103.06019       52.28034       21.92531
C        103.07918       53.74823       22.37645
C        103.30531       54.73028       21.21051
N        102.20219       54.73033       20.24607
H        101.10899       50.28862       21.63141
H        103.88891       49.66413       22.13092
H        103.75281       51.50326       23.81988
H        101.95675       51.53108       23.65921
H        102.22340       52.13339       21.21611
H        104.01369       52.05286       21.40117
H        103.91622       53.88182       23.09590
H        102.12966       54.00222       22.89671
H        104.25896       54.48625       20.69172
H        103.40231       55.75383       21.63542
H        102.12071       53.80723       19.76497
H        101.30353       54.96545       20.72663
H        102.39159       55.45600       19.51731
N        101.93200       48.02888       24.16107
C        101.90788       47.11221       25.30325
C        101.99081       45.64988       24.84585
O        102.04631       44.77551       25.69974
C        100.66204       47.36117       26.19709
C         99.37390       47.25216       25.43282
O         99.07382       48.17284       24.49553
O         98.63349       46.29879       25.60836
H        101.15937       47.96190       23.49128
H        102.79901       47.27575       25.94806
H        100.70711       48.36870       26.66146
H        100.67554       46.61224       27.02029
N        102.06478       45.30905       23.52495
C        102.28840       43.96083       23.03588
C        101.13715       42.99596       23.21831
O        101.31708       41.85105       22.82609
H        102.05231       46.03833       22.81241
H        103.20090       43.55151       23.52224
H        102.49559       44.00925       21.94497
N         99.94616       43.33238       23.80130
C         98.92324       42.31637       24.04603
C         98.28257       41.75263       22.78051
O         97.61734       40.73215       22.89686
C         97.84185       42.79240       25.03912
C         96.93826       43.90167       24.56041
N         95.92514       44.31372       25.35531
O         97.10120       44.42471       23.46900
H         99.79976       44.28807       24.15322
H         99.44302       41.47522       24.55899
H         98.33596       43.12100       25.97904
H         97.19694       41.92007       25.28212
H         95.76867       43.87630       26.27490
H         95.28553       45.05844       25.05079
N         98.41004       42.34542       21.55522
C         97.85653       41.76319       20.33922
C         96.78358       42.59385       19.66122
O         96.28669       42.12966       18.64583
H         98.93544       43.22406       21.46903
H         97.40528       40.76998       20.54243
H         98.68878       41.60541       19.61928
N         96.37772       43.81789       20.11509
C         95.36915       44.59804       19.39258
C         95.34870       46.05975       19.79547
O         95.92888       46.43195       20.80350
C         93.93936       44.01141       19.55270
C         93.43039       44.06129       20.98434
C         92.39829       44.95074       21.34238
C         93.97246       43.22040       21.97266
C         91.93118       45.00486       22.66103
C         93.49682       43.26983       23.28718
C         92.47771       44.16623       23.63717
O         92.01741       44.23022       24.90348
H         96.84213       44.22226       20.93604
H         95.66651       44.59809       18.32047
H         93.87898       42.96810       19.17985
H         93.26131       44.61105       18.90634
H         91.96180       45.61476       20.60674
H         94.75543       42.51617       21.72883
H         91.14569       45.70245       22.92579
H         93.92236       42.61089       24.03364
H         92.36925       43.66873       25.60931
N         94.69831       46.95644       18.99448
C         94.58868       48.37355       19.31377
C         93.13644       48.81446       19.30024
O         92.28560       48.12566       18.75633
C         95.47509       49.23931       18.36806
C         95.07277       49.11034       16.87416
C         96.95010       48.87038       18.58945
C         95.88638       50.01472       15.93994
H         94.28197       46.62106       18.11349
H         94.94927       48.54164       20.34947
H         95.35151       50.30253       18.65944
H         94.00610       49.39990       16.76497
H         95.18948       48.06167       16.52795
H         97.21700       48.98904       19.66100
H         97.14467       47.82213       18.28349
H         97.61614       49.53634       18.01203
H         95.79731       51.07754       16.25023
H         96.95719       49.72559       15.92177
H         95.50603       49.91374       14.90186
N         92.79294       49.96946       19.93029
C         91.44275       50.51753       19.96934
C         91.46323       51.93249       19.41283
O         92.51229       52.38993       18.99060
C         90.93496       50.47708       21.42208
O         91.77082       51.22892       22.26065
H         93.52970       50.48608       20.43235
H         90.74164       49.91191       19.35492
H         90.92254       49.40938       21.74607
H         89.89704       50.86732       21.48914
H         91.64265       50.87308       23.17862
N         90.33924       52.70140       19.39789
C         90.34527       54.09376       18.95185
C         91.32685       54.91083       19.77028
O         92.13297       55.62860       19.19437
C         88.94734       54.70235       19.08432
H         89.45920       52.29597       19.74930
H         90.62863       54.14404       17.87638
H         88.60744       54.68896       20.14177
H         88.95901       55.75400       18.72386
H         88.22615       54.12912       18.46466
N         91.34558       54.79374       21.12768
C         92.26939       55.51135       21.99800
C         93.70940       55.34221       21.55618
O         94.39002       56.34153       21.37030
C         92.11918       55.00739       23.44194
H         90.68494       54.12919       21.56102
H         92.01956       56.59539       21.98280
H         92.80787       55.55594       24.11933
H         91.07855       55.16240       23.79691
H         92.35209       53.92148       23.50637
N         94.24304       54.10361       21.37890
C         95.64634       53.89430       21.03884
C         95.98491       54.50919       19.69102
O         96.83450       55.38805       19.64116
C         96.00854       52.39780       21.05799
C         95.77014       51.77109       22.44255
C         96.26028       50.36035       22.47613
O         95.49082       49.44779       22.72273
O         97.56190       50.09946       22.25755
H         93.62680       53.29034       21.52003
H         96.27226       54.38428       21.81880
H         97.08681       52.30159       20.80132
H         95.41906       51.85025       20.29788
H         94.68937       51.78540       22.69874
H         96.31969       52.34473       23.21778
N         95.35804       54.10258       18.55420
C         95.64886       54.67942       17.25972
H         96.71317       54.50464       16.99559
H         95.00754       54.20989       16.48309
H         95.44257       55.77098       17.27502
H         94.64829       53.36380       18.60442
Ca        98.24156       47.36257       22.58857
O         96.34170       48.23937       25.65672
H         95.68682       47.85143       26.28949
H         96.36262       49.20478       25.87373
O         94.62936       46.99471       23.64927
H         93.88373       47.40306       24.15616
H         94.21068       46.64329       22.82632

Ca 1.0



