%chk=holoCaM-CaMKII.loop4.water1.frame374.chk
%nprocshared=20
%mem=10GB
%nosave
#b3lyp/svp scf=(tight,noincore,xqc) Test 
#IOP(5/87=12) Density=Current Pop=(MK,readradii) iop(6/33=2) iop(6/42=6)

holoCaM-CaMKII.loop4.water1.frame374 

   -3  1 
C         53.25098       70.87208       30.26522
C         52.38973       70.35115       29.14519
O         51.79498       69.29191       29.27226
H         54.29618       71.00499       29.91087
H         52.86582       71.86082       30.59809
H         53.25158       70.18150       31.13360
N         52.27592       71.08478       28.00828
C         51.44146       70.73627       26.85414
C         51.92477       69.42917       26.22130
O         53.07231       69.36608       25.80198
C         51.53735       71.92841       25.87489
C         50.72943       72.01851       24.61130
O         51.04072       72.90887       23.84155
O         49.65477       71.27306       24.28785
H         52.80596       71.97234       27.98523
H         50.39227       70.64462       27.18891
H         52.60435       71.99903       25.57069
H         51.29214       72.85982       26.43327
N         51.09857       68.34225       26.12701
C         51.49253       67.06330       25.52424
C         51.17308       67.03481       24.02947
O         51.67395       66.14696       23.35307
C         50.77028       65.87236       26.26677
C         51.23606       65.78584       27.74371
C         50.95644       64.50741       25.55990
C         50.48840       64.73034       28.57190
H         50.13388       68.43261       26.47071
H         52.59564       66.93994       25.61484
H         49.67717       66.08172       26.25726
H         51.06313       66.76520       28.23619
H         52.32444       65.56193       27.78106
H         50.51440       64.51487       24.54435
H         52.02988       64.23111       25.50295
H         50.39390       63.70095       26.06615
H         49.39628       64.92235       28.55401
H         50.67972       63.70103       28.20742
H         50.83781       64.76596       29.62425
N         50.33635       67.93513       23.44031
C         49.86183       67.79204       22.06639
C         50.34514       68.91580       21.16474
O         50.03512       68.88065       19.98168
C         48.31460       67.75256       22.05147
C         47.73021       66.70833       22.96806
O         47.05057       65.80231       22.51423
O         47.90613       66.79711       24.30030
H         49.95974       68.70903       23.99236
H         50.23515       66.84135       21.62665
H         47.97609       67.55261       21.01049
H         47.90882       68.74020       22.36222
N         51.10011       69.94762       21.63619
C         51.54747       71.05117       20.80507
C         50.38225       71.82105       20.22471
O         50.33574       72.02216       19.02003
H         51.37478       69.97455       22.62793
H         52.21495       70.67776       19.99836
H         52.13531       71.74914       21.43998
N         49.39902       72.27791       21.04582
C         48.26194       73.08197       20.62069
C         48.21424       74.40575       21.38033
O         47.20811       75.09609       21.29181
C         46.94914       72.27148       20.75548
C         46.54647       71.83364       22.13965
O         45.52065       71.18957       22.28319
O         47.27787       72.14146       23.22152
H         49.45910       72.03777       22.03853
H         48.33594       73.33115       19.53931
H         47.04363       71.36258       20.12257
H         46.11702       72.88323       20.34317
N         49.28999       74.86439       22.08952
C         49.28557       76.14288       22.77797
C         48.44871       76.15739       24.03922
O         48.24212       77.24702       24.55905
H         50.17570       74.34388       22.07490
H         48.93342       76.92374       22.07008
H         50.32177       76.41394       23.07831
N         48.00596       75.01581       24.64976
C         47.27079       75.05558       25.91556
C         47.38026       73.76929       26.71551
O         47.91800       72.78502       26.22273
C         45.81285       75.52152       25.67784
C         44.91461       74.59492       24.82888
C         44.35116       73.41936       25.59699
N         43.03269       73.38296       25.90824
O         45.07245       72.49721       25.93943
H         48.28763       74.11012       24.25388
H         47.77852       75.80695       26.56229
H         45.87636       76.48836       25.13579
H         45.29973       75.73375       26.64038
H         45.42008       74.26534       23.89534
H         44.05005       75.21947       24.51906
H         42.39918       74.14638       25.63238
H         42.63681       72.60199       26.44739
N         46.95479       73.74124       28.01223
C         47.13153       72.59294       28.89576
C         45.81032       72.26300       29.58425
O         45.25124       73.14702       30.22100
C         48.25259       72.90970       29.93346
C         48.57852       71.68664       30.80607
C         49.55052       73.35537       29.23457
H         46.57207       74.60868       28.42198
H         47.47204       71.71872       28.31400
H         47.91930       73.74060       30.59295
H         49.36647       71.93807       31.54756
H         47.68660       71.34709       31.36438
H         48.95829       70.85311       30.17949
H         49.39172       74.28360       28.64803
H         50.34326       73.56923       29.98278
H         49.91433       72.56229       28.55155
N         45.27696       71.00334       29.55085
C         44.07267       70.63413       30.30037
C         44.46224       70.07951       31.66194
O         45.64209       69.95485       31.93626
C         43.21998       69.57869       29.55215
C         42.69087       70.01294       28.21023
N         43.51281       70.15675       27.14699
O         41.48845       70.18155       28.06709
H         45.82010       70.25327       29.10036
H         43.44663       71.53571       30.48220
H         42.33910       69.34082       30.18628
H         43.79403       68.63729       29.41810
H         44.52270       69.98111       27.22439
H         43.12822       70.40715       26.22473
N         43.51355       69.74254       32.58223
C         43.83140       69.19572       33.90043
C         44.51570       67.84240       33.77646
O         45.54321       67.63967       34.40677
C         42.54906       69.05487       34.74625
C         42.85678       68.71024       36.18729
C         43.56029       69.62141       36.99763
C         42.43423       67.49083       36.74018
C         43.83404       69.31786       38.33395
C         42.71305       67.18744       38.07762
C         43.41247       68.10200       38.87934
O         43.68179       67.82587       40.17143
H         42.52282       69.90134       32.34465
H         44.50036       69.91404       34.42431
H         41.88999       68.29007       34.27958
H         41.99506       70.01874       34.74972
H         43.89005       70.57295       36.59954
H         41.89202       66.77375       36.13732
H         44.37158       70.03107       38.94703
H         42.38287       66.24284       38.49043
H         43.40394       66.99893       40.59039
N         44.00937       66.88400       32.94298
C         44.63169       65.57616       32.72247
C         46.11148       65.71402       32.42109
O         46.91548       65.02903       33.03828
C         43.89511       64.77434       31.61095
C         43.87667       65.42775       30.21254
C         43.11561       64.58314       29.22957
O         43.66775       64.15821       28.22677
O         41.81437       64.30584       29.43915
H         43.16166       67.11961       32.40635
H         44.54176       64.97517       33.65435
H         42.84535       64.62029       31.94223
H         44.37398       63.77344       31.52215
H         44.91140       65.55258       29.83375
H         43.38696       66.42090       30.25651
N         46.54135       66.63998       31.52878
C         47.94509       66.86809       31.22185
C         48.70331       67.30310       32.46399
O         49.71084       66.69430       32.79442
C         48.08113       67.94988       30.14944
C         47.37063       67.58032       28.83464
C         47.62396       68.61380       27.79768
O         48.37658       69.54516       28.02198
O         47.08269       68.50476       26.58086
H         45.82895       67.23069       31.07698
H         48.39813       65.93708       30.81279
H         49.16664       68.09825       29.94799
H         47.65380       68.90528       30.52079
H         46.27512       67.50230       28.97449
H         47.75274       66.61477       28.44580
N         48.25818       68.35027       33.20936
C         48.92855       68.81713       34.39978
H         49.93507       69.20352       34.13823
H         48.33934       69.64077       34.85988
H         49.01474       67.99203       35.13708
H         47.39419       68.82509       32.93690
Ca        48.23390       69.84876       25.24958
O         44.79301       69.00886       24.45501
H         44.66834       68.04876       24.66209
H         44.16720       69.18480       23.70831

Ca 1.0



