%chk=holoCaM.loop3.water2.frame336.chk
%nprocshared=20
%mem=10GB
%nosave
#b3lyp/svp scf=(tight,noincore,xqc) Test 
#IOP(5/87=12) Density=Current Pop=(MK,readradii) iop(6/33=2) iop(6/42=6)

holoCaM.loop3.water2.frame336 

   0  1 
C         26.27792        6.86017       -3.31268
C         27.48835        5.99722       -3.45854
O         27.66550        5.39739       -4.51077
H         25.65643        6.48221       -2.47547
H         26.58932        7.90505       -3.10725
H         25.67597        6.84115       -4.24682
N         28.38997        5.89736       -2.44107
C         29.58130        5.07871       -2.57442
C         29.18129        3.61847       -2.64393
O         28.62398        3.10226       -1.68389
C         30.55527        5.30216       -1.41329
C         31.87397        4.65511       -1.69861
O         32.76996        4.75040       -0.88143
O         32.11478        4.04099       -2.87701
H         28.23874        6.44568       -1.57994
H         30.09699        5.41003       -3.50610
H         30.12920        4.91498       -0.46195
H         30.74868        6.38965       -1.29012
N         29.37653        2.91362       -3.78737
C         28.84219        1.57330       -3.97346
C         29.55153        0.51948       -3.12456
O         28.92921       -0.49214       -2.83381
C         28.84391        1.22313       -5.47762
C         27.87616        0.08473       -5.83572
C         27.72686       -0.09034       -7.35654
C         28.96936       -0.69555       -8.02388
N         28.76969       -0.81659       -9.46838
H         29.79597        3.40537       -4.58858
H         27.77504        1.63082       -3.65932
H         29.87793        1.01897       -5.82252
H         28.46877        2.11912       -6.02234
H         26.87322        0.37234       -5.44978
H         28.17103       -0.87318       -5.35856
H         27.48256        0.89280       -7.81850
H         26.87170       -0.77466       -7.54463
H         29.15053       -1.70454       -7.59083
H         29.86555       -0.06684       -7.83836
H         27.91225       -1.37982       -9.67323
H         28.67462        0.13437       -9.89429
H         29.59721       -1.29511       -9.89144
N         30.86077        0.65351       -2.74146
C         31.58003       -0.36265       -1.96565
C         32.21499        0.18957       -0.68090
O         32.88881       -0.57166        0.00034
C         32.57512       -1.12673       -2.87312
C         33.72003       -0.33737       -3.42984
O         33.89999        0.94534       -3.09697
O         34.51307       -0.87613       -4.18490
H         31.38503        1.48220       -3.05304
H         30.87350       -1.15309       -1.63030
H         31.99828       -1.54484       -3.72730
H         33.00302       -1.98081       -2.30444
N         31.96691        1.45752       -0.22907
C         32.37460        1.92173        1.09345
C         33.84031        2.28017        1.27439
O         34.19728        2.57388        2.40735
H         31.32931        2.06572       -0.75924
H         32.09388        1.14290        1.83836
H         31.79437        2.83360        1.35148
N         34.75167        2.29886        0.25574
C         36.17464        2.57895        0.49962
C         36.46427        4.01614        0.97558
O         37.60602        4.28644        1.32028
C         37.03571        2.18066       -0.73741
C         37.05001        3.15129       -1.94056
N         38.25256        3.97462       -1.94023
O         35.96658        4.00535       -1.86747
H         34.44283        2.03723       -0.69084
H         36.48457        1.87757        1.30648
H         36.66944        1.19349       -1.09267
H         38.08650        2.01036       -0.41830
H         39.08826        3.35920       -2.05111
H         38.21297        4.58892       -2.78542
N         35.49686        4.98654        1.00449
C         35.70366        6.35924        1.45807
C         35.47742        7.40068        0.36426
O         35.52322        8.58137        0.67465
H         34.54708        4.75608        0.69856
H         36.72926        6.50830        1.85875
H         34.98854        6.55162        2.28717
N         35.29657        7.04341       -0.94029
C         35.18384        7.97709       -2.05907
C         34.04760        7.58818       -2.99529
O         33.71263        6.41976       -3.08037
C         36.48947        7.91139       -2.88047
C         37.66579        8.52834       -2.16430
C         38.77528        7.75550       -1.78271
C         37.67451        9.90933       -1.90849
C         39.87457        8.35611       -1.15984
C         38.77544       10.50895       -1.29289
C         39.88190        9.73406       -0.91886
O         40.95663       10.30269       -0.33637
H         35.32498        6.05414       -1.17471
H         35.01513        9.01648       -1.70458
H         36.37505        8.46311       -3.83896
H         36.69235        6.84574       -3.13579
H         38.79707        6.69274       -1.96880
H         36.83495       10.52573       -2.20409
H         40.72621        7.75142       -0.87347
H         38.76973       11.57685       -1.11597
H         41.00770       11.25525       -0.17171
N         33.51668        8.51683       -3.84398
C         32.55317        8.20101       -4.90007
C         33.21583        8.52971       -6.22874
O         33.70767        9.64026       -6.37477
C         31.24206        9.03010       -4.76366
C         30.64100        8.94567       -3.34045
C         30.21905        8.53577       -5.81710
C         29.46391        9.90631       -3.13800
H         33.84625        9.49098       -3.76861
H         32.27233        7.12474       -4.86619
H         31.48901       10.09790       -4.95493
H         31.41378        9.24141       -2.59994
H         30.32246        7.90797       -3.11631
H         29.94532        7.47460       -5.62034
H         29.29392        9.14256       -5.81687
H         30.63339        8.59873       -6.84379
H         29.78509       10.94970       -3.34905
H         28.60399        9.65320       -3.78895
H         29.11490        9.85319       -2.08623
N         33.23799        7.63030       -7.25293
C         33.89334        7.90116       -8.52943
C         32.88394        8.04947       -9.65750
O         31.69137        7.89522       -9.43916
C         34.91778        6.78979       -8.81942
O         34.28466        5.54556       -8.97149
H         32.75821        6.72968       -7.13235
H         34.44576        8.86418       -8.48271
H         35.67603        6.75288       -8.00225
H         35.48359        7.00656       -9.74860
H         34.32890        5.08479       -8.09355
N         33.32076        8.38962      -10.90518
C         32.44903        8.57872      -12.06255
C         31.68029        7.31784      -12.38309
O         30.48766        7.40162      -12.63850
C         33.27471        8.99307      -13.28405
H         34.33373        8.53065      -11.03687
H         31.73186        9.40617      -11.86075
H         32.60542        9.16478      -14.15474
H         33.81281        9.94100      -13.06900
H         34.01596        8.20874      -13.54687
N         32.29872        6.10514      -12.35677
C         31.59499        4.84694      -12.56944
C         30.46900        4.68277      -11.56151
O         29.33814        4.45399      -11.96753
C         32.57233        3.66990      -12.44494
H         33.30670        6.07663      -12.13539
H         31.17688        4.82608      -13.60099
H         33.03115        3.63693      -11.43313
H         32.04330        2.71022      -12.62832
H         33.38437        3.76965      -13.19653
N         30.71361        4.79288      -10.22326
C         29.68722        4.58248       -9.19941
C         28.56129        5.61443       -9.25139
O         27.56726        5.41296       -8.56729
C         30.31031        4.60447       -7.78318
C         31.38381        3.51676       -7.59503
C         32.00695        3.57823       -6.23156
O         32.58852        4.58404       -5.86085
O         31.96988        2.50249       -5.42616
H         31.67829        5.00678       -9.93373
H         29.24226        3.57687       -9.37278
H         29.51299        4.44237       -7.02406
H         30.75348        5.60876       -7.60868
H         32.20219        3.63521       -8.33077
H         30.92272        2.51753       -7.74853
N         28.64718        6.74555      -10.00771
C         27.60062        7.74401      -10.09493
H         26.70549        7.47734       -9.49597
H         27.99174        8.71827       -9.73342
H         27.29124        7.85731      -11.15572
H         29.50005        6.93452      -10.53870
Ca        34.25226        3.53311       -3.20558
O         34.64503        1.77315       -6.61515
H         34.04539        1.06434       -6.27121
H         34.24150        2.03988       -7.47922
O         35.96518        4.64380       -5.69347
H         36.48537        5.47943       -5.58683
H         36.64374        3.92305       -5.66565

Ca 1.0



