%chk=holoCaM-CaMKII.loop2.water1.frame100.chk
%nprocshared=20
%mem=10GB
%nosave
#b3lyp/svp scf=(tight,noincore,xqc) Test 
#IOP(5/87=12) Density=Current Pop=(MK,readradii) iop(6/33=2) iop(6/42=6)

holoCaM-CaMKII.loop2.water1.frame100 

   -2  1 
C         17.94551       61.62891       38.05300
C         17.23625       61.42967       36.74891
O         17.86049       60.99954       35.78846
H         18.84355       62.25792       37.88743
H         17.29022       62.14904       38.78292
H         18.25395       60.65341       38.48056
N         15.91101       61.71489       36.64343
C         15.19211       61.57725       35.39365
C         15.65677       62.59367       34.37357
O         16.01796       63.71048       34.71887
C         13.67413       61.67594       35.60880
C         12.91066       61.37442       34.37673
O         11.84931       62.14888       34.11570
O         13.15580       60.38444       33.70015
H         15.39428       62.00202       37.48844
H         15.34180       60.55598       35.00870
H         13.37665       62.68143       35.97248
H         13.33109       60.92970       36.35169
N         15.61691       62.25912       33.06610
C         15.78298       63.19305       31.98667
C         14.69298       63.02173       30.90983
O         14.67123       63.82141       29.98715
C         17.18618       62.96715       31.42625
H         15.45274       61.29173       32.82235
H         15.71194       64.22348       32.37725
H         17.29242       61.92150       31.06096
H         17.40168       63.68830       30.61650
H         17.93438       63.10946       32.24185
N         13.80491       61.97456       30.92447
C         12.96912       61.56572       29.79139
C         11.46480       61.42863       30.09138
O         10.69665       61.28640       29.15282
C         13.48626       60.21578       29.25399
C         13.60965       59.14204       30.30480
O         14.68175       58.58210       30.44807
O         12.66398       58.91250       31.22114
H         13.79218       61.35074       31.72020
H         13.08678       62.30021       28.97236
H         14.51347       60.36913       28.85737
H         12.84111       59.88693       28.41696
N         10.98362       61.46404       31.35951
C          9.57820       61.45209       31.77240
C          8.87900       60.11589       31.82320
O          7.69368       60.08425       32.12035
H         11.67806       61.62932       32.05675
H          9.01629       62.08504       31.07038
H          9.50041       61.85534       32.80487
N          9.51865       58.98081       31.50033
C          8.84008       57.72166       31.27927
C          8.36145       57.00767       32.55451
O          7.64293       56.02598       32.42647
C          9.75091       56.90062       30.35539
C         10.99304       56.39315       30.98979
N         11.91006       55.82019       30.20207
O         11.20730       56.53103       32.17782
H         10.48317       59.07173       31.20906
H          7.94304       57.95446       30.67078
H         10.10587       57.58447       29.54934
H          9.21960       56.07023       29.86370
H         11.77184       55.77324       29.18660
H         12.75959       55.45302       30.60111
N          8.71173       57.43840       33.80756
C          8.21889       56.84492       35.05311
C          9.20485       55.95375       35.77095
O          8.85423       55.37370       36.79184
H          9.33792       58.24830       33.89884
H          7.34771       56.18342       34.84991
H          7.95394       57.67530       35.72708
N         10.41824       55.71911       35.22763
C         11.25419       54.59179       35.57508
C         12.72278       54.93098       35.39287
O         13.06454       55.62674       34.44991
C         10.88914       53.37918       34.65288
C          9.50600       52.83091       34.92538
O         10.96923       53.61724       33.27224
H         10.63887       56.20995       34.36907
H         11.07708       54.29427       36.62990
H         11.60054       52.56950       34.89277
H         11.26251       54.53416       33.13727
H          9.42871       51.89613       34.33611
H          9.44147       52.59748       36.00294
H          8.68007       53.51586       34.61686
N         13.67018       54.41408       36.22286
C         15.09062       54.64421       35.98182
C         15.54345       53.82191       34.77177
O         15.35882       52.61082       34.74932
C         15.98622       54.37571       37.24077
C         15.68580       55.32772       38.43817
C         17.47074       54.56069       36.87411
C         16.22384       54.75174       39.76289
H         13.37606       53.80023       36.99701
H         15.23530       55.71815       35.76937
H         15.81930       53.32848       37.55652
H         14.59739       55.45561       38.57622
H         16.13766       56.33664       38.26185
H         17.81438       53.71709       36.25316
H         17.59120       55.49950       36.32015
H         18.14473       54.64234       37.74511
H         16.05140       55.45130       40.60898
H         15.70247       53.79950       40.00057
H         17.30795       54.54089       39.71643
N         16.22137       54.45599       33.76834
C         16.87530       53.82872       32.62378
C         18.36681       53.62617       32.90126
O         18.83504       54.10938       33.90500
C         16.69362       54.71046       31.38813
C         15.26883       54.98724       31.06186
O         14.77989       54.47343       30.06784
O         14.63976       56.00227       31.68919
H         16.36030       55.46106       33.86358
H         16.42892       52.83706       32.42458
H         17.14245       54.18922       30.52572
H         17.21111       55.69325       31.50110
N         19.15618       52.85259       32.10008
C         20.54482       52.48249       32.43030
C         21.48492       53.69750       32.47855
O         22.35011       53.71748       33.34465
C         21.01612       51.33026       31.47999
C         22.28778       50.62351       31.88560
C         23.49288       50.87847       31.20603
C         22.28282       49.70355       32.95199
C         24.68877       50.33860       31.67584
C         23.48382       49.16139       33.41574
C         24.69169       49.51173       32.80103
H         18.71327       52.43194       31.27107
H         20.52879       52.07443       33.46599
H         21.13304       51.73425       30.46150
H         20.21837       50.56238       31.47656
H         23.52732       51.52208       30.33605
H         21.35421       49.41004       33.43040
H         25.61519       50.58675       31.17569
H         23.47095       48.48899       34.26493
H         25.63202       49.13669       33.17965
N         21.39057       54.75774       31.61610
C         22.20995       55.95840       31.72864
C         21.90547       56.79100       32.98228
O         22.80774       57.39092       33.54562
C         21.90217       56.75652       30.46118
C         21.25400       55.75623       29.50973
C         20.55861       54.76948       30.43811
H         23.26534       55.63635       31.73502
H         21.13764       57.53440       30.66024
H         22.82365       57.23696       30.06728
H         20.56415       56.24377       28.78572
H         22.04914       55.20703       28.95544
H         19.54755       55.12530       30.71088
H         20.50281       53.77017       29.95988
N         20.63839       56.86061       33.46587
C         20.24948       57.50205       34.72711
C         20.84689       56.74485       35.89712
O         21.37135       57.34479       36.82502
C         18.72232       57.47963       34.82568
C         18.12403       58.30324       33.68727
C         16.64934       58.42953       33.74428
O         16.11381       59.22562       33.01017
O         15.89322       57.65768       34.53450
H         19.91326       56.35464       32.93641
H         20.55780       58.57019       34.78027
H         18.41598       57.87500       35.82638
H         18.36903       56.45030       34.68322
H         18.35014       57.82551       32.71221
H         18.56100       59.32153       33.70936
N         20.84641       55.39090       35.85358
C         21.46827       54.51504       36.80559
H         22.42819       54.94036       37.15162
H         20.77132       54.31968       37.64133
H         21.68325       53.54565       36.29459
H         20.48840       54.95416       35.01756
Ca        13.63456       57.68083       32.79407
O         11.95045       58.15001       34.89995
H         11.31021       58.87117       35.10942
H         12.69513       58.25919       35.54088

Ca 1.0



