%chk=holoCaM.loop1.water2.frame221.chk
%nprocshared=20
%mem=10GB
%nosave
#b3lyp/svp scf=(tight,noincore,xqc) Test 
#IOP(5/87=12) Density=Current Pop=(MK,readradii) iop(6/33=2) iop(6/42=6)

holoCaM.loop1.water2.frame221 

   0  1 
C         23.76358       56.66775       46.00930
C         22.61206       55.98509       46.67955
O         21.80597       56.66996       47.29297
H         24.42935       55.93726       45.50496
H         23.38349       57.39027       45.25796
H         24.35420       57.21348       46.77559
N         22.46821       54.62976       46.61153
C         21.39056       53.92459       47.29342
C         21.51885       54.14232       48.78976
O         22.44307       53.62241       49.39964
C         21.40563       52.42781       46.89772
C         20.53849       51.51699       47.72995
O         21.05433       50.55644       48.27463
O         19.21498       51.71317       47.87332
H         23.14966       54.08975       46.05630
H         20.44536       54.37247       46.94179
H         22.44715       52.04656       46.98571
H         21.10756       52.34799       45.82910
N         20.66335       54.99752       49.42160
C         20.82629       55.38663       50.81323
C         20.32902       54.28481       51.73467
O         21.11166       53.75342       52.50892
C         20.08434       56.72255       51.08895
C         20.42110       57.27189       52.48735
C         19.75872       58.61135       52.86901
C         18.29722       58.54597       53.36709
N         17.30761       58.28651       52.32287
H         19.95625       55.48541       48.85416
H         21.90795       55.58951       50.98655
H         19.00689       56.57252       50.94288
H         20.41174       57.47985       50.34173
H         21.51988       57.45130       52.47898
H         20.20752       56.52793       53.28312
H         19.88392       59.36942       52.06516
H         20.33269       58.97573       53.74967
H         18.06379       59.53925       53.81191
H         18.20482       57.78958       54.17827
H         17.42218       58.96535       51.53564
H         17.35918       57.30373       51.98776
H         16.35451       58.41309       52.73497
N         19.01075       53.93269       51.73095
C         18.42598       52.96468       52.65506
C         18.99639       51.56416       52.48007
O         19.49231       51.02317       53.45880
C         16.87607       53.01335       52.61249
C         16.23013       52.90142       51.25783
O         15.52048       53.94303       50.78440
O         16.29681       51.87544       50.60422
H         18.38399       54.42270       51.07603
H         18.67069       53.28236       53.69492
H         16.58051       54.00640       53.01872
H         16.45377       52.24225       53.29240
N         18.98835       50.92219       51.27923
C         19.52584       49.57939       51.08704
C         18.50396       48.65210       50.46564
O         18.21622       47.60779       51.03196
H         18.63229       51.42512       50.45677
H         19.89710       49.14077       52.03812
H         20.39322       49.64127       50.40606
N         17.93095       48.97867       49.27528
C         16.97903       48.15471       48.54089
C         17.47371       47.84628       47.12072
O         16.72525       47.24782       46.36049
C         15.58878       48.83608       48.54908
C         15.48636       50.19796       47.91151
O         14.29744       50.82849       47.91289
O         16.44971       50.74618       47.40530
H         18.18257       49.87781       48.86207
H         16.83295       47.17764       49.05234
H         15.26884       48.94126       49.60881
H         14.86042       48.16632       48.04345
N         18.73875       48.16946       46.70929
C         19.27833       47.83331       45.39686
C         18.78596       48.70457       44.25286
O         19.24993       48.48590       43.14157
H         19.39806       48.59125       47.37638
H         19.09141       46.75823       45.18142
H         20.38041       47.97547       45.43203
N         17.87669       49.70599       44.42401
C         17.41343       50.58611       43.34674
C         17.63485       52.04798       43.71467
O         18.08057       52.30735       44.81770
C         15.92166       50.30206       43.05009
C         15.72807       48.90854       42.43466
O         15.13001       50.45397       44.20394
H         17.48287       49.85772       45.36003
H         17.99159       50.40355       42.41389
H         15.55730       51.02627       42.29131
H         15.25566       49.65470       44.78054
H         16.07588       48.11212       43.12634
H         14.65352       48.74333       42.21104
H         16.30185       48.83269       41.48624
N         17.39626       53.05743       42.82390
C         17.60147       54.48059       43.11818
C         16.35279       55.29174       42.75818
O         15.96881       55.33617       41.59704
C         18.90485       54.98134       42.40626
C         20.12923       54.48856       43.23589
C         18.94699       56.51390       42.24477
C         21.49974       54.87153       42.67762
H         17.10091       52.80482       41.86770
H         17.76398       54.63240       44.20647
H         18.93629       54.56284       41.37552
H         20.09932       53.38221       43.31469
H         20.06501       54.90887       44.26605
H         18.10068       56.86406       41.62018
H         18.91687       57.01776       43.22840
H         19.85372       56.83302       41.69305
H         22.28794       54.46023       43.34437
H         21.63360       54.45428       41.65921
H         21.63991       55.97155       42.65815
N         15.68995       55.98506       43.73349
C         14.53748       56.86530       43.50845
C         14.96809       58.16284       42.81911
O         16.14170       58.32977       42.53993
C         13.86107       57.22447       44.86960
C         13.37152       55.98772       45.62570
O         14.75689       57.93716       45.68178
H         16.02877       55.88335       44.69878
H         13.78138       56.33329       42.89052
H         12.96584       57.85224       44.66283
H         14.21757       58.40044       46.37536
H         14.22634       55.35635       45.92804
H         12.84331       56.29776       46.55214
H         12.67277       55.39689       44.99807
N         14.06757       59.15827       42.57007
C         14.44877       60.49553       42.10399
C         15.35264       61.18342       43.12067
O         16.39016       61.71085       42.74578
C         13.19891       61.39633       41.88085
C         12.34462       60.91072       40.70831
O         12.41399       61.45537       43.04641
H         13.07446       58.97831       42.77421
H         14.98612       60.42942       41.13129
H         13.56490       62.42002       41.62384
H         11.85458       62.27323       42.98286
H         11.95101       59.89074       40.89282
H         11.48675       61.60189       40.56278
H         12.94891       60.90811       39.77653
N         14.98065       61.23900       44.42823
C         15.68606       61.98919       45.46615
C         17.11951       61.52941       45.59819
O         18.02984       62.34048       45.50273
C         14.93043       61.87245       46.81967
C         13.44813       62.32447       46.75215
C         13.28534       63.74274       46.18684
C         11.81511       64.14629       46.05732
N         11.70713       65.48290       45.47188
H         14.13123       60.72146       44.68676
H         15.72095       63.06139       45.18669
H         15.45961       62.49467       47.57364
H         14.94687       60.81895       47.17877
H         13.01171       62.27223       47.77318
H         12.85811       61.62594       46.12474
H         13.70544       63.78807       45.16220
H         13.82516       64.46259       46.83886
H         11.32754       64.13256       47.05600
H         11.29095       63.41865       45.39658
H         12.18174       66.18268       46.08743
H         12.14887       65.49696       44.52285
H         10.69859       65.73840       45.37599
N         17.38228       60.21346       45.76398
C         18.71923       59.63427       45.81492
C         19.50713       60.01925       44.57241
O         20.58839       60.57518       44.71043
C         18.56543       58.11210       45.99786
C         18.03821       57.84158       47.42807
C         17.64594       56.42531       47.66672
O         17.54378       55.56503       46.64968
O         17.41281       56.04205       48.80150
H         16.56957       59.58395       45.80264
H         19.28092       60.02767       46.69219
H         19.53981       57.58821       45.87500
H         17.86656       57.72367       45.22312
H         17.15553       58.46067       47.68457
H         18.86375       58.09981       48.12717
N         18.99769       59.82917       43.32892
C         19.67184       60.28960       42.13394
H         20.65446       59.78595       42.02614
H         19.05062       60.06921       41.23943
H         19.82158       61.39045       42.18819
H         18.08033       59.38837       43.23184
Ca        18.22977       53.52297       47.07711
O         14.38887       54.13129       48.22584
H         14.05466       54.93829       48.69255
H         13.61180       53.51878       48.20410
O         14.84152       53.05576       45.15768
H         15.17999       52.52097       45.91739
H         13.85634       53.00184       45.23908

Ca 1.0



