%chk=holoCaM.loop3.water2.frame186.chk
%nprocshared=20
%mem=10GB
%nosave
#b3lyp/svp scf=(tight,noincore,xqc) Test 
#IOP(5/87=12) Density=Current Pop=(MK,readradii) iop(6/33=2) iop(6/42=6)

holoCaM.loop3.water2.frame186 

   0  1 
C         33.62023       64.96634       71.52829
C         33.76498       65.95301       70.41654
O         33.41948       65.61322       69.29301
H         32.55333       64.67597       71.61944
H         34.22764       64.06685       71.29304
H         33.96585       65.39081       72.49288
N         34.29498       67.18966       70.64394
C         34.49417       68.15289       69.57725
C         35.99002       68.26681       69.35702
O         36.68566       68.80672       70.20744
C         33.80558       69.48986       69.93075
C         33.73455       70.41530       68.75757
O         34.17643       70.00274       67.55961
O         33.26026       71.53016       68.88394
H         34.61564       67.43720       71.59310
H         34.02717       67.76494       68.64697
H         34.34312       69.97604       70.77492
H         32.76131       69.30411       70.25233
N         36.56484       67.62027       68.30132
C         38.00683       67.40571       68.21414
C         38.74936       68.60018       67.62915
O         39.97197       68.58649       67.66745
C         38.32252       66.12598       67.39719
C         37.61031       64.84250       67.89749
C         37.89555       64.44796       69.36036
C         39.37194       64.15379       69.68012
N         39.88725       63.00871       68.92687
H         35.94603       67.10609       67.65747
H         38.39546       67.23656       69.24297
H         39.41980       65.95165       67.39507
H         38.00966       66.29104       66.34281
H         37.88515       64.00234       67.22622
H         36.51209       64.96423       67.79736
H         37.29683       63.54219       69.60198
H         37.53836       65.25707       70.03150
H         39.44614       63.92497       70.76657
H         39.99811       65.05020       69.48516
H         39.30693       62.15985       69.11958
H         39.89565       63.21082       67.90240
H         40.86955       62.81819       69.22992
N         38.09358       69.65046       67.05049
C         38.77187       70.81788       66.48056
C         38.34139       72.11758       67.17250
O         38.88465       73.16038       66.83576
C         38.56250       70.83874       64.94725
C         37.11205       70.90405       64.59555
O         36.38948       71.97869       64.94484
O         36.55428       69.92963       64.11450
H         37.06623       69.61821       66.98269
H         39.86968       70.73685       66.63878
H         38.98780       69.89323       64.54136
H         39.10075       71.68659       64.47454
N         37.42904       72.12597       68.19138
C         37.13572       73.29020       69.01035
C         36.41218       74.42546       68.31896
O         36.93053       75.53298       68.33979
H         36.98556       71.24846       68.49354
H         38.08692       73.65908       69.45536
H         36.48423       72.97251       69.85314
N         35.16980       74.25308       67.77534
C         34.33053       75.37312       67.33769
C         32.98797       75.40798       68.08896
O         32.15313       76.23047       67.73916
C         34.14991       75.39996       65.79652
C         33.29632       74.32845       65.17222
N         33.04147       74.35750       63.84483
O         32.81030       73.44630       65.85004
H         34.78015       73.30129       67.72983
H         34.83973       76.33688       67.55947
H         35.15277       75.38453       65.31724
H         33.66931       76.36898       65.53763
H         33.43087       75.10246       63.24974
H         32.44079       73.64055       63.41252
N         32.72077       74.58791       69.15598
C         31.45845       74.60193       69.89306
C         30.33895       73.79521       69.23870
O         29.24024       73.79488       69.77238
H         33.46458       73.98178       69.52623
H         31.14102       75.65569       70.06055
H         31.62333       74.15045       70.89428
N         30.53798       73.10107       68.08257
C         29.50022       72.39546       67.33045
C         29.99605       71.03544       66.85718
O         31.09053       70.94896       66.32128
C         29.15574       73.23982       66.09347
C         28.51918       74.54131       66.50850
C         29.22861       75.74437       66.39106
C         27.21404       74.55854       67.03186
C         28.64897       76.94713       66.80239
C         26.62882       75.76487       67.42642
C         27.34789       76.96402       67.31676
O         26.80086       78.13485       67.70046
H         31.46244       73.14617       67.65761
H         28.56638       72.27247       67.92268
H         28.45210       72.70328       65.41889
H         30.09319       73.42310       65.52522
H         30.23694       75.74669       65.99867
H         26.64686       73.63997       67.12547
H         29.21354       77.86673       66.72122
H         25.61939       75.76579       67.81907
H         25.90213       78.19116       68.05510
N         29.18961       69.94036       66.95444
C         29.53958       68.61305       66.44913
C         28.53478       68.22537       65.36867
O         27.34196       68.25606       65.63543
C         29.52454       67.59343       67.62623
C         30.57086       68.00591       68.69351
C         29.79881       66.15969       67.12442
C         30.50710       67.16297       69.96822
H         28.26039       70.05240       67.38725
H         30.56143       68.60133       66.00810
H         28.51222       67.61306       68.08766
H         30.38983       69.05629       69.00431
H         31.59257       67.94936       68.25815
H         29.72493       65.41967       67.94465
H         29.04437       65.85219       66.37435
H         30.80992       66.09243       66.67308
H         30.74695       66.09990       69.77324
H         31.24824       67.54129       70.70112
H         29.49693       67.23738       70.42199
N         28.95547       67.78581       64.14324
C         28.03264       67.29595       63.11599
C         27.95992       65.78438       63.16869
O         28.72346       65.18660       63.90591
C         28.48361       67.76872       61.72238
O         29.76127       67.26458       61.43388
H         29.96714       67.67727       63.98212
H         27.00812       67.67657       63.31554
H         28.50892       68.88008       61.70608
H         27.76356       67.40565       60.95506
H         30.00704       67.61097       60.53724
N         27.03318       65.08939       62.44455
C         26.96618       63.63015       62.49777
C         28.19322       62.99551       61.86112
O         28.49765       61.85382       62.17878
C         25.69483       63.10480       61.82778
H         26.34807       65.61045       61.87663
H         26.91712       63.33219       63.57009
H         24.80219       63.53979       62.32696
H         25.67559       63.37888       60.75199
H         25.63858       61.99875       61.92276
N         28.93908       63.67440       60.94121
C         30.17341       63.15432       60.36596
C         31.21775       63.01611       61.45479
O         31.77526       61.94152       61.62461
C         30.68610       64.10146       59.27354
H         28.62419       64.60947       60.64122
H         29.98137       62.17105       59.88014
H         31.61963       63.69902       58.82590
H         29.92442       64.19046       58.46915
H         30.88927       65.11507       59.67954
N         31.48687       64.07890       62.26544
C         32.42190       64.04528       63.38607
C         32.07521       62.91758       64.34283
O         32.95558       62.13654       64.67655
C         32.40810       65.39372       64.14397
C         32.98504       66.54799       63.30696
C         32.98068       67.83235       64.08676
O         33.65187       67.92314       65.25104
O         32.38145       68.80551       63.66088
H         30.95468       64.94571       62.10031
H         33.45720       63.87540       63.01427
H         33.03492       65.29548       65.05789
H         31.36924       65.63370       64.45525
H         32.39993       66.68493       62.37285
H         34.03437       66.31208       63.02902
N         30.80621       62.74895       64.79985
C         30.44080       61.68250       65.70367
H         29.34551       61.70580       65.88980
H         30.70268       60.69869       65.25926
H         30.97117       61.81189       66.66997
H         30.06597       63.37672       64.47487
Ca        34.46582       71.32967       65.81134
O         34.59195       71.81216       62.50219
H         34.54735       71.49425       61.56599
H         35.27483       72.52927       62.48799
O         31.03033       71.33904       63.57028
H         31.36169       71.21479       62.64638
H         30.25397       71.94569       63.48063

Ca 1.0



