%chk=holoCaM.loop2.water2.frame454.chk
%nprocshared=20
%mem=10GB
%nosave
#b3lyp/svp scf=(tight,noincore,xqc) Test 
#IOP(5/87=12) Density=Current Pop=(MK,readradii) iop(6/33=2) iop(6/42=6)

holoCaM.loop2.water2.frame454 

   -2  1 
C          5.50176       89.46279       55.50028
C          5.22354       90.93650       55.45572
O          6.13887       91.73145       55.61473
H          6.57624       89.26433       55.69607
H          4.90221       89.00169       56.31507
H          5.21432       88.99670       54.53496
N          3.94803       91.36793       55.26458
C          3.55264       92.77263       55.27062
C          3.94367       93.41564       56.59433
O          3.57785       92.90062       57.64147
C          2.03406       92.86512       55.02351
C          1.50141       94.26091       55.12529
O          0.55548       94.52940       56.03952
O          1.90568       95.14742       54.39217
H          3.21763       90.64911       55.13611
H          4.06059       93.30067       54.43588
H          1.50282       92.24043       55.77382
H          1.80453       92.46454       54.01132
N          4.69445       94.55521       56.60525
C          5.19871       95.19527       57.81175
C          4.54495       96.54518       58.07614
O          4.88881       97.15751       59.07798
C          6.71744       95.36481       57.66620
H          4.93357       94.99735       55.71044
H          4.99675       94.55919       58.69985
H          6.95062       96.02377       56.79952
H          7.15678       95.81661       58.58027
H          7.19860       94.37866       57.49390
N          3.59651       97.07253       57.24632
C          2.93979       98.35550       57.48483
C          1.42412       98.21192       57.61215
O          0.75404       99.22909       57.72951
C          3.35897       99.38477       56.41325
C          3.00361       99.02663       55.00004
O          3.53262       97.93630       54.41214
O          2.28485       99.77004       54.35314
H          3.31816       96.55204       56.40467
H          3.28054       98.79851       58.44649
H          4.46015       99.52308       56.46457
H          2.89171      100.36273       56.66758
N          0.81620       96.99097       57.69434
C         -0.60563       96.84228       57.96448
C         -1.52133       97.26709       56.83458
O         -2.69424       97.46869       57.11584
H          1.38603       96.13518       57.68215
H         -0.84647       97.43193       58.87616
H         -0.84298       95.78195       58.20049
N         -1.10727       97.33792       55.53308
C         -2.00880       97.71247       54.43776
C         -2.36188       96.53105       53.53732
O         -3.09330       96.72174       52.57522
C         -1.42197       98.89443       53.64269
C         -0.29475       98.51271       52.71321
N         -0.38279       98.78798       51.39224
O          0.70293       97.95905       53.14484
H         -0.13604       97.08084       55.30738
H         -2.97147       98.07586       54.85802
H         -1.07845       99.67397       54.35643
H         -2.23727       99.34221       53.03375
H         -1.21298       99.25194       50.99539
H          0.39308       98.54898       50.76325
N         -1.92711       95.27092       53.82010
C         -2.30697       94.09205       53.06624
C         -1.66290       93.95403       51.70411
O         -1.90921       92.92123       51.09645
H         -1.37165       95.10607       54.66606
H         -3.41429       94.04131       52.98108
H         -1.97811       93.20034       53.64552
N         -0.82367       94.88844       51.15430
C         -0.13632       94.65385       49.88097
C          1.39714       94.73565       50.09866
O          1.69004       94.09682       51.31046
C         -0.62632       95.62887       48.78531
C         -2.15454       95.63583       48.66928
O         -0.17896       96.92663       49.05852
H         -0.63364       95.76991       51.64976
H         -0.36539       93.62640       49.52033
H         -0.20542       95.28537       47.81260
H         -0.11076       97.39984       48.18788
H         -2.53684       94.61439       48.46308
H         -2.61443       96.01320       49.60841
H         -2.46482       96.30844       47.84214
N          2.12347       94.07285       48.98438
C          3.60410       94.03259       49.10712
C          4.33127       94.97380       48.15369
O          4.07039       94.95379       46.96094
C          4.16824       92.58505       49.08222
C          3.96057       91.88652       47.72295
C          3.58124       91.77248       50.25826
C          4.62714       90.51144       47.65325
H          1.83889       94.45161       48.05448
H          3.91538       94.35361       50.07785
H          5.26689       92.66011       49.26182
H          4.43196       92.50166       46.92999
H          2.87696       91.78886       47.50156
H          4.06217       90.77855       50.34813
H          3.77279       92.29246       51.22234
H          2.48607       91.63480       50.13896
H          4.51082       90.09654       46.63142
H          5.71061       90.60036       47.87823
H          4.16312       89.79714       48.36216
N          5.34394       95.75905       48.63084
C          6.21769       96.56320       47.77801
C          7.49643       95.74463       47.52919
O          7.56088       94.62279       47.98519
C          6.47467       97.91416       48.49775
C          7.00585       99.04285       47.64628
O          7.06454       98.95714       46.43064
O          7.33150      100.20874       48.23551
H          5.60338       95.68215       49.62628
H          5.71529       96.75606       46.80698
H          7.15540       97.73191       49.35844
H          5.51635       98.29873       48.90763
N          8.54227       96.22442       46.79434
C          9.76202       95.45454       46.53325
C         10.50410       95.04823       47.81100
O         10.79565       93.85683       47.92430
C         10.69283       96.25687       45.59745
C         11.92141       95.47379       45.19977
C         11.80926       94.32081       44.40181
C         13.19368       95.89836       45.61716
C         12.95359       93.61001       44.02587
C         14.33375       95.18060       45.24512
C         14.21460       94.03925       44.44801
H          8.47893       97.15556       46.38685
H          9.47162       94.53304       45.98185
H         10.98341       97.19961       46.09640
H         10.14704       96.53836       44.67094
H         10.83985       93.97769       44.06217
H         13.30296       96.78052       46.23544
H         12.86341       92.72755       43.40535
H         15.31015       95.51143       45.57384
H         15.09954       93.48841       44.15686
N         10.86055       95.90763       48.82204
C         11.63207       95.52365       50.00287
C         10.89031       94.60977       50.97962
O         11.45807       94.27672       52.00506
C         11.99210       96.86602       50.64957
C         10.78443       97.70813       50.31155
C         10.54413       97.32869       48.85559
H         12.57823       95.00964       49.71852
H         12.27098       96.82442       51.72409
H         12.84753       97.30592       50.08738
H          9.93020       97.33409       50.92086
H         10.89376       98.79943       50.48543
H          9.49175       97.56407       48.62197
H         11.23976       97.86928       48.18230
N          9.64379       94.13895       50.70592
C          8.90217       93.22299       51.55928
C          8.84004       91.87646       50.85121
O          9.24562       90.88398       51.44424
C          7.52264       93.84402       51.85819
C          7.67959       95.16376       52.65765
C          6.36657       95.87342       52.78569
O          6.18267       96.93527       52.21436
O          5.34924       95.27085       53.41174
H          9.18158       94.42127       49.84165
H          9.41250       93.05647       52.53350
H          6.89562       93.13062       52.43757
H          7.00831       94.04658       50.89209
H          8.37598       95.83989       52.12065
H          8.09687       94.95439       53.66611
N          8.44152       91.77129       49.55395
C          8.51881       90.53277       48.80985
H          9.56669       90.15970       48.80630
H          7.85029       89.77043       49.25779
H          8.21883       90.70713       47.75344
H          8.12640       92.60415       49.04808
Ca         3.57292       95.06533       52.12925
O          4.59782       99.47886       51.98704
H          5.30945       99.38046       51.30579
H          5.02010       99.99709       52.71684
O          2.89699       97.90843       50.11058
H          2.56812       97.56630       49.24211
H          2.68938       98.87670       50.08870

Ca 1.0



