%chk=holoCaM.loop4.water3.frame23.chk
%nprocshared=20
%mem=10GB
%nosave
#b3lyp/svp scf=(tight,noincore,xqc) Test 
#IOP(5/87=12) Density=Current Pop=(MK,readradii) iop(6/33=2) iop(6/42=6)

holoCaM.loop4.water3.frame23 

   -3  1 
C         87.58655       18.08838       34.48092
C         87.43558       18.59728       33.07893
O         86.40060       19.17094       32.77122
H         88.44265       18.60533       34.96551
H         86.67178       18.30154       35.07649
H         87.76928       16.99537       34.47626
N         88.46214       18.47876       32.18817
C         88.43731       19.09719       30.86911
C         88.95875       18.18188       29.76558
O         90.07080       17.68345       29.89099
C         89.29471       20.36582       30.93277
C         89.24158       21.08277       29.62635
O         88.15928       21.39948       29.16529
O         90.37127       21.33525       28.93928
H         89.34405       18.05147       32.51262
H         87.40890       19.43029       30.61767
H         90.34684       20.12020       31.19343
H         88.88422       21.03979       31.71621
N         88.24327       17.99888       28.61061
C         88.73550       17.25109       27.45396
C         88.84414       18.09921       26.17252
O         89.47273       17.61445       25.24654
C         87.87235       15.97683       27.18182
C         86.42511       16.33145       26.73927
C         87.88402       15.06056       28.41843
C         85.57312       15.12189       26.34832
H         87.32095       18.43467       28.54390
H         89.77112       16.90538       27.66992
H         88.35378       15.41851       26.34779
H         86.46747       16.99286       25.84769
H         85.90121       16.87034       27.54657
H         88.92971       14.81814       28.70240
H         87.38292       15.55101       29.27979
H         87.37394       14.09876       28.21025
H         84.57819       15.47208       25.99850
H         86.05841       14.55642       25.52517
H         85.40109       14.44986       27.21294
N         88.21558       19.31351       26.00790
C         88.26462       20.06424       24.73769
C         88.72655       21.51677       24.87680
O         88.89753       22.16904       23.85186
C         86.89241       20.00687       24.03126
C         85.75703       20.69309       24.74956
O         85.93622       21.31131       25.93285
O         84.65019       20.69929       24.23687
H         87.62500       19.67479       26.76337
H         88.98803       19.57677       24.05050
H         86.61889       18.94074       23.87753
H         86.99045       20.47815       23.02821
N         88.93608       22.10084       26.08381
C         89.39122       23.46821       26.26808
C         88.43399       24.49720       25.70633
O         88.85351       25.27231       24.85994
H         88.78853       21.54550       26.92682
H         90.39190       23.58285       25.79553
H         89.50663       23.67010       27.35484
N         87.14380       24.58349       26.15187
C         86.20607       25.60699       25.67663
C         85.71274       26.54553       26.78144
O         85.06305       27.52615       26.44015
C         85.03796       24.96336       24.89767
C         84.15133       24.03013       25.68113
O         84.37423       23.76247       26.98019
O         83.20960       23.49702       25.11853
H         86.82603       23.89512       26.84571
H         86.72722       26.26864       24.95127
H         85.46251       24.39244       24.04354
H         84.39997       25.77351       24.48145
N         85.97727       26.33832       28.10538
C         85.61560       27.27242       29.16411
C         84.53076       26.76738       30.10108
O         84.19064       27.50718       31.01237
H         86.47985       25.49642       28.38979
H         85.23764       28.22650       28.73666
H         86.53219       27.51586       29.74352
N         83.87786       25.58255       29.90111
C         82.65420       25.22532       30.62047
C         82.59974       23.74244       30.97333
O         82.75119       22.91261       30.09230
C         81.43400       25.64964       29.77009
C         81.36259       25.00553       28.37079
C         80.19346       25.48862       27.55188
N         80.01038       25.00189       26.30355
O         79.41096       26.31495       27.99920
H         84.14302       25.00557       29.09563
H         82.56674       25.81538       31.55957
H         81.48664       26.75417       29.63952
H         80.50429       25.41595       30.33406
H         81.27009       23.90585       28.46397
H         82.28290       25.24883       27.80200
H         80.66061       24.30399       25.91315
H         79.21853       25.32056       25.72662
N         82.33825       23.33684       32.25131
C         82.20095       21.92586       32.63057
C         81.00001       21.31382       31.91153
O         79.92986       21.90591       31.93153
C         82.04809       21.73935       34.16920
C         82.03058       20.23653       34.52131
C         83.20338       22.39664       34.94741
H         82.20596       24.06321       32.96838
H         83.13408       21.39137       32.34683
H         81.09419       22.20060       34.50837
H         81.91836       20.09375       35.61650
H         81.18593       19.71282       34.02876
H         82.97916       19.75116       34.19898
H         83.07513       22.21963       36.03674
H         84.18194       21.97755       34.62969
H         83.22659       23.49481       34.80616
N         81.11497       20.11489       31.27102
C         80.05934       19.49829       30.47244
C         79.63536       18.15261       31.06041
O         80.22665       17.69489       32.02675
C         80.63369       19.34918       29.04089
C         79.70555       18.78311       27.99670
N         78.55383       19.41291       27.67521
O         80.01250       17.75435       27.41277
H         82.00900       19.61444       31.33289
H         79.16247       20.15387       30.45041
H         81.54316       18.71017       29.09287
H         80.94866       20.35479       28.69434
H         78.28032       20.28641       28.14614
H         77.93647       19.02419       26.94792
N         78.57144       17.48364       30.52719
C         78.11927       16.15371       30.95030
C         79.04072       15.02529       30.48029
O         78.78363       13.88910       30.85566
C         76.65565       15.91248       30.48880
C         76.44386       16.16109       29.01036
C         77.04044       15.34839       28.03423
C         75.65943       17.25485       28.60175
C         76.88331       15.64474       26.67659
C         75.50199       17.54783       27.24662
C         76.12120       16.75225       26.27947
O         75.98272       17.06512       24.97595
H         78.03326       17.97437       29.80398
H         78.09619       16.12261       32.06303
H         76.02944       16.62990       31.06373
H         76.30720       14.89405       30.76824
H         77.63549       14.49250       28.31763
H         75.18764       17.89889       29.33372
H         77.36279       15.01901       25.93471
H         74.91111       18.40522       26.95085
H         76.41775       16.55710       24.27676
N         80.14073       15.24886       29.70034
C         81.10920       14.20914       29.35592
C         82.35063       14.35121       30.22237
O         83.27441       13.56541       30.06511
C         81.52154       14.31487       27.87082
C         80.34626       14.15502       26.90619
C         80.81268       14.25322       25.48150
O         80.38445       15.13529       24.75430
O         81.70313       13.36591       24.99722
H         80.37675       16.21056       29.42468
H         80.69259       13.19583       29.54958
H         82.27019       13.52155       27.64888
H         82.00116       15.30444       27.69435
H         79.61253       14.96002       27.10141
H         79.85762       13.16910       27.06000
N         82.43642       15.33361       31.16424
C         83.59277       15.57593       31.99918
C         83.24085       15.41620       33.47476
O         84.11279       15.63346       34.30568
C         84.09795       17.00602       31.72406
C         84.32367       17.26778       30.22277
C         84.96339       18.62892       29.97292
O         84.24720       19.67412       30.55466
O         85.03450       18.89581       28.60256
H         81.65947       15.98240       31.30018
H         84.41022       14.86278       31.75640
H         85.04484       17.14496       32.28105
H         83.35227       17.74298       32.09748
H         83.35601       17.21157       29.67948
H         85.00597       16.49429       29.81164
N         81.99240       15.03921       33.88611
C         81.64636       14.90882       35.28397
H         80.58805       14.58259       35.38176
H         82.29717       14.15170       35.76912
H         81.76174       15.88814       35.79474
H         81.24873       14.83147       33.20462
Ca        84.11271       20.95172       28.68678
O         87.29849       23.88127       30.04232
H         88.11919       24.41137       30.19281
H         87.34833       23.62266       29.08938
O         82.07980       20.98510       26.42950
H         83.01861       20.71316       26.27626
H         82.14464       21.79175       27.00063
O         85.72240       22.34083       31.84317
H         86.64293       22.47119       32.18153
H         85.71603       21.40473       31.52895

Ca 1.0



