%chk=holoCaM.loop3.water2.frame359.chk
%nprocshared=20
%mem=10GB
%nosave
#b3lyp/svp scf=(tight,noincore,xqc) Test 
#IOP(5/87=12) Density=Current Pop=(MK,readradii) iop(6/33=2) iop(6/42=6)

holoCaM.loop3.water2.frame359 

   0  1 
C         86.47562      119.67517       63.07512
C         84.98049      119.66616       62.94143
O         84.40873      120.59695       62.39378
H         86.91585      120.59371       62.63617
H         86.75081      119.62239       64.15103
H         86.89796      118.78746       62.55708
N         84.28611      118.61663       63.44878
C         82.83876      118.46267       63.41298
C         82.37201      118.50060       64.85448
O         81.89236      117.51595       65.39790
C         82.55309      117.16957       62.63181
C         81.13378      116.68931       62.59526
O         80.90143      115.53726       62.92538
O         80.12015      117.43914       62.12378
H         84.82320      117.86711       63.91512
H         82.33909      119.30022       62.87858
H         83.17633      116.34677       63.04625
H         82.87611      117.33893       61.58113
N         82.55648      119.66366       65.54020
C         82.30941      119.85049       66.96664
C         80.85363      119.60322       67.29834
O         80.58049      118.74653       68.12761
C         82.74555      121.26982       67.40673
C         84.25701      121.49610       67.18194
C         84.68986      122.91307       67.57796
C         86.15909      123.20592       67.21586
N         87.10229      122.34216       67.92824
H         82.92779      120.45899       65.00045
H         82.93148      119.12526       67.53871
H         82.52705      121.39963       68.48970
H         82.16684      122.03124       66.83885
H         84.51446      121.36317       66.11238
H         84.82148      120.74445       67.77269
H         84.52357      123.07194       68.66521
H         84.06422      123.64264       67.01812
H         86.37611      124.26567       67.47452
H         86.30513      123.08916       66.11819
H         86.98549      121.34525       67.63912
H         88.07645      122.63435       67.68499
H         86.96859      122.43644       68.96080
N         79.86355      120.28751       66.65598
C         78.44006      120.02791       66.87501
C         78.14403      118.53398       66.73072
O         77.66917      117.95459       67.69843
C         77.53300      120.91650       65.97876
C         77.76150      120.70996       64.50828
O         78.95685      121.00697       63.96384
O         76.88805      120.21255       63.81651
H         80.14939      120.99727       65.96966
H         78.19724      120.30934       67.92516
H         77.70253      121.98899       66.21351
H         76.47413      120.67893       66.22708
N         78.48078      117.82783       65.60799
C         78.39425      116.37180       65.53998
C         77.51510      115.82985       64.43291
O         77.42698      114.61359       64.33592
H         78.90436      118.31885       64.80832
H         78.01474      115.94562       66.49317
H         79.42123      115.97535       65.39100
N         76.81938      116.62987       63.57355
C         75.92018      116.08264       62.55260
C         76.61641      115.22831       61.48924
O         75.91546      114.58045       60.72368
C         75.08418      117.20442       61.89453
C         75.87906      118.26673       61.16724
N         75.23149      119.28928       60.56555
O         77.09843      118.22268       61.12534
H         76.88114      117.64965       63.68739
H         75.20177      115.41626       63.08079
H         74.49524      117.70937       62.69041
H         74.36708      116.74642       61.17928
H         74.20347      119.34888       60.59416
H         75.75748      120.02466       60.07254
N         77.97287      115.17395       61.37709
C         78.68571      114.31055       60.45052
C         79.46801      115.05770       59.38826
O         80.16308      114.38616       58.64032
H         78.53946      115.75110       61.99789
H         77.99424      113.62066       59.92002
H         79.38724      113.68504       61.04381
N         79.36082      116.41050       59.19656
C         80.01063      117.09714       58.07902
C         80.83067      118.29029       58.53824
O         80.73754      118.68794       59.68863
C         78.95049      117.59744       57.06853
C         78.06567      116.49348       56.53817
C         77.07240      115.91275       57.34936
C         78.21409      116.04503       55.21602
C         76.25756      114.89367       56.85158
C         77.40124      115.02132       54.72161
C         76.42090      114.44084       55.53930
O         75.63102      113.45224       55.07494
H         78.73653      116.95959       59.79818
H         80.69410      116.40008       57.54805
H         79.49137      118.07143       56.22084
H         78.30298      118.38034       57.51905
H         76.91677      116.25170       58.36511
H         78.96699      116.47895       54.56998
H         75.49766      114.45700       57.48776
H         77.53557      114.68038       53.70320
H         75.71495      113.10790       54.17443
N         81.65288      118.92638       57.64914
C         82.36620      120.16378       57.94900
C         81.98790      121.16672       56.86684
O         82.38302      120.97675       55.72427
C         83.90609      119.92301       57.98487
C         84.26104      118.79731       58.99311
C         84.64579      121.23173       58.33370
C         85.73768      118.39462       58.96904
H         81.76454      118.52400       56.70616
H         82.05274      120.54798       58.94542
H         84.22852      119.58735       56.97381
H         83.68987      117.88090       58.73288
H         83.97516      119.10076       60.02304
H         84.39656      122.03567       57.61083
H         84.36918      121.57228       59.35414
H         85.74476      121.09981       58.28816
H         86.39644      119.22476       59.29164
H         85.89942      117.54709       59.66811
H         86.02781      118.06722       57.94735
N         81.15883      122.21491       57.13325
C         80.70094      123.12665       56.08369
C         81.78748      124.11562       55.68100
O         82.84622      124.13434       56.29385
C         79.42827      123.86476       56.54122
O         79.68354      124.63574       57.68103
H         80.77062      122.30151       58.08371
H         80.40698      122.52493       55.19461
H         78.64600      123.10908       56.77566
H         79.05469      124.51560       55.71990
H         78.84206      125.12257       57.87962
N         81.57415      124.99345       54.65308
C         82.54103      126.02142       54.26284
C         82.70793      127.11248       55.32169
O         83.56372      127.96849       55.14485
C         82.11361      126.67551       52.94361
H         80.69451      124.91556       54.11991
H         83.52277      125.52653       54.09008
H         81.13523      127.18890       53.06252
H         82.87176      127.41848       52.61409
H         82.02159      125.90313       52.15085
N         81.94518      127.13678       56.45131
C         82.11744      128.08689       57.53865
C         82.92241      127.41786       58.62904
O         83.91733      127.98285       59.06242
C         80.74883      128.54280       58.05193
H         81.24095      126.40575       56.59688
H         82.66745      128.99462       57.20174
H         80.18466      129.03919       57.23381
H         80.15438      127.67944       58.42120
H         80.87580      129.26870       58.88335
N         82.59930      126.16226       59.05717
C         83.39984      125.41618       60.02258
C         84.82705      125.16649       59.53291
O         85.62837      124.70427       60.33375
C         82.76348      124.03798       60.31765
C         81.36270      124.11825       60.93914
C         80.83221      122.73445       61.17846
O         79.80084      122.36736       60.63897
O         81.49869      121.88902       61.98698
H         81.76792      125.71192       58.65610
H         83.44817      126.01198       60.96108
H         83.41838      123.48312       61.02596
H         82.70917      123.46071       59.36717
H         80.66375      124.66154       60.27022
H         81.41197      124.65942       61.90728
N         85.21771      125.41309       58.24618
C         86.56455      125.18575       57.76347
H         87.24566      124.81397       58.55698
H         86.53837      124.43828       56.94326
H         86.97605      126.13833       57.36864
H         84.54430      125.76147       57.55209
Ca        79.68662      119.61763       62.37825
O         77.90236      120.85687       58.66506
H         77.20335      120.66439       57.99070
H         78.74014      120.91582       58.14224
O         76.79823      122.27619       61.48377
H         77.18179      122.90157       62.14875
H         76.75145      122.80170       60.64594

Ca 1.0



