%chk=holoCaM.loop2.water1.frame237.chk
%nprocshared=20
%mem=10GB
%nosave
#b3lyp/svp scf=(tight,noincore,xqc) Test 
#IOP(5/87=12) Density=Current Pop=(MK,readradii) iop(6/33=2) iop(6/42=6)

holoCaM.loop2.water1.frame237 

   -2  1 
C         55.21536      105.64803       57.32091
C         53.77569      105.75708       57.72039
O         53.01302      104.82709       57.49956
H         55.85909      105.75532       58.21873
H         55.42065      104.66955       56.83914
H         55.45851      106.45976       56.60196
N         53.33326      106.89760       58.31293
C         51.94690      107.11698       58.70231
C         51.04512      107.01034       57.48001
O         51.28206      107.69340       56.49347
C         51.83237      108.48058       59.40483
C         50.43196      108.80146       59.81618
O         49.92020      109.83040       59.41831
O         49.74072      107.97785       60.62680
H         54.02148      107.64916       58.48123
H         51.65592      106.34491       59.44595
H         52.20922      109.28507       58.73517
H         52.46475      108.46292       60.31961
N         49.99138      106.14484       57.49103
C         49.13970      105.86171       56.34474
C         47.73602      106.42174       56.51140
O         46.93914      106.23854       55.60111
C         49.09109      104.34240       56.13270
H         49.77982      105.64947       58.36340
H         49.56031      106.32620       55.42624
H         48.48321      104.08776       55.23841
H         50.11662      103.94266       55.98336
H         48.64187      103.84131       57.01793
N         47.37366      107.16778       57.59793
C         46.07221      107.82223       57.71540
C         46.21182      109.33551       57.64204
O         45.19589      110.01727       57.66865
C         45.42821      107.48144       59.07344
C         45.30863      106.00868       59.32068
O         44.63780      105.30883       58.58048
O         45.93025      105.45734       60.38118
H         48.05554      107.33421       58.35190
H         45.39946      107.50495       56.88870
H         44.41792      107.94220       59.13583
H         46.05419      107.92066       59.88058
N         47.43425      109.93866       57.61398
C         47.62221      111.37038       57.71188
C         46.99632      111.91882       58.97584
O         46.27808      112.90398       58.88607
H         48.29288      109.37511       57.58057
H         47.21247      111.88214       56.81416
H         48.71477      111.57579       57.74819
N         47.21369      111.32268       60.18808
C         46.69196      111.84779       61.44688
C         47.81654      112.18383       62.43481
O         47.51714      112.64460       63.52755
C         45.67573      110.87008       62.06885
C         46.32351      109.69819       62.75841
N         46.19675      109.56172       64.09820
O         46.98072      108.88779       62.12351
H         47.76265      110.45470       60.22096
H         46.13062      112.78573       61.24666
H         44.94514      110.52454       61.30473
H         45.10116      111.43985       62.83088
H         45.65753      110.23837       64.65801
H         46.65412      108.78790       64.58667
N         49.13159      112.01041       62.10873
C         50.23742      112.43032       62.95120
C         50.66792      111.46181       64.03821
O         51.67845      111.76899       64.65540
H         49.38373      111.69508       61.16340
H         50.04438      113.44492       63.36007
H         51.12849      112.51794       62.29018
N         50.03667      110.27906       64.31731
C         50.60961      109.29830       65.25346
C         50.92267      108.00094       64.52232
O         50.59673      107.87889       63.34924
C         49.71423      109.06952       66.49529
C         49.50643      110.36966       67.28069
O         48.47944      108.52944       66.11728
H         49.16682      110.03546       63.82031
H         51.58694      109.66183       65.63794
H         50.23680      108.34952       67.16666
H         48.05089      108.18222       66.94401
H         48.96550      111.12001       66.66712
H         48.91337      110.16677       68.19804
H         50.48742      110.79012       67.59008
N         51.61265      107.00357       65.14952
C         52.04409      105.77967       64.48248
C         51.39216      104.57660       65.15584
O         51.66218      104.29803       66.31554
C         53.60507      105.71528       64.48150
C         54.17189      106.87544       63.61404
C         54.12152      104.35846       63.96825
C         55.69506      107.01608       63.67076
H         51.88919      107.13170       66.13474
H         51.72163      105.78373       63.41780
H         53.95677      105.83336       65.53061
H         53.75365      107.84203       63.96525
H         53.86200      106.73443       62.55385
H         53.80785      104.19296       62.91861
H         55.22590      104.29660       64.02766
H         53.74394      103.53197       64.60150
H         56.21121      106.11946       63.27431
H         56.00640      107.87907       63.04443
H         56.02197      107.20163       64.71546
N         50.51311      103.81488       64.44506
C         49.90526      102.56745       64.90194
C         50.89236      101.42439       64.72697
O         51.99479      101.65803       64.25881
C         48.63199      102.29903       64.06285
C         47.49354      103.20937       64.45358
O         46.93094      103.03497       65.52216
O         47.05574      104.19087       63.64108
H         50.32455      104.09668       63.47798
H         49.62577      102.63322       65.97661
H         48.25562      101.26545       64.20916
H         48.87770      102.40062       62.98145
N         50.57654      100.15294       65.10661
C         51.50738       99.03690       64.96363
C         51.81504       98.73716       63.48991
O         52.99558       98.70059       63.17387
C         51.03275       97.80145       65.76793
C         52.04697       96.67778       65.78231
C         53.33859       96.88052       66.30641
C         51.70235       95.40492       65.29441
C         54.26396       95.83323       66.33431
C         52.63074       94.35912       65.32902
C         53.91029       94.57328       65.84736
H         49.66080       99.98300       65.55101
H         52.45728       99.34093       65.45688
H         50.06250       97.42670       65.40480
H         50.87028       98.11468       66.82230
H         53.63326       97.84453       66.69962
H         50.71430       95.21807       64.89297
H         55.25467       95.99792       66.73856
H         52.35703       93.38055       64.95662
H         54.62683       93.76245       65.87503
N         50.85640       98.55059       62.51483
C         51.15710       98.28273       61.10136
C         51.97358       99.34583       60.36577
O         52.25528       99.15375       59.19064
C         49.77287       98.20935       60.44117
C         48.91254       97.69439       61.56632
C         49.42541       98.52375       62.73794
H         51.67851       97.30118       61.05659
H         49.40698       99.24220       60.22775
H         49.74041       97.62459       59.49689
H         47.81798       97.76747       61.39367
H         49.18185       96.62671       61.73989
H         49.03907       99.56459       62.69751
H         49.10158       98.02439       63.66177
N         52.36964      100.49221       60.97926
C         53.11748      101.57032       60.35052
C         54.52274      101.55605       60.91763
O         55.46690      101.48696       60.14329
C         52.35361      102.89277       60.58922
C         50.99248      102.82323       59.86939
C         50.02688      103.89629       60.24256
O         50.33396      104.85785       61.12340
O         48.87989      103.81999       59.83119
H         52.11256      100.64677       61.95754
H         53.20854      101.42461       59.25020
H         52.92648      103.76955       60.21612
H         52.19481      103.01804       61.68356
H         50.47954      101.88410       60.16456
H         51.14157      102.81672       58.76920
N         54.74185      101.52098       62.26037
C         56.06292      101.36260       62.82455
H         56.70322      102.22494       62.55072
H         55.99346      101.29426       63.93162
H         56.51859      100.42002       62.44907
H         53.94929      101.55042       62.90857
Ca        48.49416      105.27547       62.30515
O         45.93728      106.47883       64.30943
H         45.27452      106.83039       64.95338
H         46.77163      106.38928       64.83763

Ca 1.0



