%chk=holoCaM-CaMKII.loop2.water2.frame81.chk
%nprocshared=20
%mem=10GB
%nosave
#b3lyp/svp scf=(tight,noincore,xqc) Test 
#IOP(5/87=12) Density=Current Pop=(MK,readradii) iop(6/33=2) iop(6/42=6)

holoCaM-CaMKII.loop2.water2.frame81 

   -2  1 
C        -26.57878       70.16314       83.78858
C        -27.92332       69.49819       83.89859
O        -28.58208       69.31469       82.88529
H        -25.91846       69.55562       83.13380
H        -26.68793       71.17895       83.35741
H        -26.08697       70.25277       84.78138
N        -28.37858       69.07595       85.10922
C        -29.62601       68.34427       85.29105
C        -30.85187       69.19028       84.96096
O        -30.98444       70.29637       85.46465
C        -29.70220       67.79766       86.72542
C        -30.91617       66.93892       86.90473
O        -31.80066       67.21331       87.88000
O        -31.11413       66.00050       86.15116
H        -27.77626       69.22928       85.93346
H        -29.59589       67.45075       84.62666
H        -29.70399       68.62383       87.46813
H        -28.80521       67.16558       86.90600
N        -31.81103       68.67915       84.13776
C        -33.01121       69.37764       83.69441
C        -34.29664       68.67506       84.14173
O        -35.35588       69.04149       83.64980
C        -32.95891       69.44793       82.16239
H        -31.67892       67.72435       83.78613
H        -33.04386       70.42083       84.07661
H        -32.04006       69.98386       81.84193
H        -32.94622       68.42665       81.72279
H        -33.83649       69.99834       81.76139
N        -34.30230       67.69794       85.09747
C        -35.51722       66.99032       85.50491
C        -35.39703       66.38362       86.90965
O        -36.26590       66.68269       87.71811
C        -35.98887       65.99330       84.41784
C        -34.88155       65.19878       83.80772
O        -34.67378       65.26687       82.60576
O        -34.09337       64.42844       84.55860
H        -33.42108       67.45692       85.56846
H        -36.35366       67.71916       85.60659
H        -36.45609       66.56408       83.58550
H        -36.76868       65.31698       84.83114
N        -34.37578       65.56149       87.29746
C        -34.26714       64.99915       88.64518
C        -34.30546       63.47651       88.67342
O        -34.23217       62.91547       89.75699
H        -33.62056       65.34666       86.63785
H        -35.09453       65.35554       89.29551
H        -33.31649       65.34797       89.09999
N        -34.46234       62.74404       87.53548
C        -34.63493       61.28885       87.48250
C        -33.39761       60.44296       87.85280
O        -33.48893       59.22896       87.73176
C        -35.15873       60.90615       86.07179
C        -34.19587       61.18892       84.95127
N        -34.55236       60.94937       83.67068
O        -33.09306       61.64438       85.19238
H        -34.56974       63.25820       86.65471
H        -35.45542       61.01451       88.18058
H        -36.08724       61.48802       85.87658
H        -35.42141       59.82837       86.04526
H        -35.48505       60.57914       83.44210
H        -33.89446       61.14103       82.90447
N        -32.23529       60.97470       88.33617
C        -31.08173       60.16824       88.73582
C        -30.20883       59.65809       87.59201
O        -29.21771       59.00302       87.88022
H        -32.18570       61.97864       88.52944
H        -31.42301       59.32597       89.37715
H        -30.41501       60.80366       89.35754
N        -30.48466       59.93261       86.28756
C        -29.66201       59.52344       85.14966
C        -29.27330       60.72170       84.30533
O        -30.12468       61.54291       84.00152
C        -30.43760       58.54900       84.22667
C        -30.58232       57.16370       84.84734
O        -31.71383       59.04885       83.91340
H        -31.32819       60.46550       86.07733
H        -28.73340       58.99980       85.46976
H        -29.84952       58.38525       83.28970
H        -31.60813       59.67321       83.15031
H        -31.10795       56.49437       84.13241
H        -29.57602       56.73243       85.04245
H        -31.15476       57.20935       85.79533
N        -28.02371       60.80439       83.76818
C        -27.69721       61.74152       82.69549
C        -28.48682       61.32563       81.46447
O        -28.39351       60.17176       81.06585
C        -26.17039       61.73610       82.37579
C        -25.36938       62.19558       83.62086
C        -25.86675       62.65801       81.17031
C        -23.85514       62.05953       83.45485
H        -27.32076       60.10008       84.04006
H        -27.95929       62.77800       82.99846
H        -25.86604       60.69900       82.10932
H        -25.64393       61.56966       84.49429
H        -25.62371       63.25061       83.86539
H        -26.18227       63.70273       81.38289
H        -24.79343       62.65396       80.90175
H        -26.39497       62.30467       80.26504
H        -23.59108       61.00251       83.23785
H        -23.46554       62.70992       82.64749
H        -23.35581       62.36347       84.39815
N        -29.23489       62.23154       80.77766
C        -29.94277       61.90157       79.54255
C        -29.12409       62.37055       78.38133
O        -28.10014       62.99969       78.58673
C        -31.33178       62.55412       79.52084
C        -32.15299       62.06121       80.65727
O        -33.29195       61.65753       80.48615
O        -31.62632       62.11559       81.88641
H        -29.22014       63.21483       81.08451
H        -30.04703       60.79916       79.43473
H        -31.86969       62.37092       78.56599
H        -31.20488       63.65310       79.64095
N        -29.46097       62.02459       77.11716
C        -28.58710       62.32651       75.99953
C        -28.46642       63.83288       75.77080
O        -27.33912       64.30254       75.72679
C        -28.98523       61.48409       74.76975
C        -27.94503       61.47668       73.67393
C        -28.30905       61.78950       72.35492
C        -26.61053       61.10743       73.94534
C        -27.35952       61.73392       71.32957
C        -25.66370       61.06940       72.92104
C        -26.03799       61.37831       71.61302
H        -30.30480       61.44810       76.96616
H        -27.58302       61.95088       76.28749
H        -29.97900       61.77580       74.38063
H        -29.06931       60.42869       75.11186
H        -29.33074       62.05609       72.11579
H        -26.29005       60.84246       74.94374
H        -27.65004       61.96075       70.31286
H        -24.64122       60.79052       73.14271
H        -25.30448       61.33522       70.81912
N        -29.54817       64.67517       75.68689
C        -29.44566       66.12821       75.55777
C        -28.55425       66.75781       76.61518
O        -27.71018       67.57812       76.28262
C        -30.89077       66.61400       75.75736
C        -31.68796       65.45816       75.20626
C        -30.93504       64.26774       75.78603
H        -29.09300       66.37533       74.53187
H        -31.13901       66.66192       76.84294
H        -31.10609       67.60783       75.30914
H        -32.77364       65.47693       75.43966
H        -31.55468       65.45005       74.10030
H        -31.18426       64.11448       76.85996
H        -31.19394       63.37297       75.19416
N        -28.69243       66.39039       77.92005
C        -27.91748       66.94946       79.02521
C        -26.43176       66.75232       78.77870
O        -25.69351       67.72719       78.77178
C        -28.33367       66.29709       80.36797
C        -29.82744       66.52433       80.69214
C        -30.27741       65.85607       81.95780
O        -31.58173       65.89297       82.28023
O        -29.49683       65.25470       82.67726
H        -29.38074       65.65209       78.12269
H        -28.12615       68.04027       79.10539
H        -27.72175       66.72971       81.19073
H        -28.13279       65.20549       80.32231
H        -30.46495       66.10493       79.89154
H        -30.03801       67.61249       80.76752
N        -25.93166       65.51334       78.52894
C        -24.53756       65.26912       78.24084
H        -23.91299       65.55627       79.11134
H        -24.38431       64.18814       78.03011
H        -24.22982       65.84782       77.34419
H        -26.56724       64.71330       78.51311
Ca       -32.53145       63.44125       83.37163
O        -30.99470       63.40670       86.93679
H        -31.63601       63.94308       87.46762
H        -30.23969       63.25036       87.55737
O        -28.65763       64.41216       85.56165
H        -28.14719       64.36422       84.71706
H        -28.05406       64.88611       86.18597

Ca 1.0



