%chk=holoCaM.loop2.water2.frame388.chk
%nprocshared=20
%mem=10GB
%nosave
#b3lyp/svp scf=(tight,noincore,xqc) Test 
#IOP(5/87=12) Density=Current Pop=(MK,readradii) iop(6/33=2) iop(6/42=6)

holoCaM.loop2.water2.frame388 

   -2  1 
C        108.90669       82.51425       -0.99045
C        109.11990       83.95123       -0.63875
O        108.29841       84.77911       -1.00799
H        107.97873       82.39636       -1.59071
H        109.76818       82.15856       -1.59274
H        108.82012       81.90693       -0.06632
N        110.21714       84.32826        0.07823
C        110.47755       85.72196        0.40984
C        110.65775       86.51322       -0.86678
O        111.62095       86.28775       -1.58671
C        111.67861       85.83283        1.35703
C        111.99825       87.20788        1.88038
O        111.21753       88.29964        1.70750
O        113.04726       87.33682        2.47611
H        110.87044       83.59724        0.40171
H        109.60371       86.08932        0.92753
H        112.56958       85.44216        0.82012
H        111.51058       85.18553        2.24750
N        109.68328       87.38354       -1.25691
C        109.66007       88.00297       -2.57418
C        110.57238       89.21256       -2.68675
O        110.72054       89.72113       -3.78933
C        108.22311       88.39217       -2.92441
H        108.85209       87.48000       -0.65605
H        109.97480       87.23510       -3.31692
H        107.85476       89.17529       -2.22797
H        108.16325       88.76344       -3.96817
H        107.56752       87.49788       -2.83371
N        111.22274       89.72179       -1.60177
C        112.17523       90.82754       -1.66670
C        113.58874       90.33982       -1.38623
O        114.51826       91.10905       -1.58791
C        111.73195       91.96150       -0.71671
C        111.51005       91.48464        0.69675
O        110.37719       91.25928        1.08407
O        112.53958       91.26575        1.53022
H        111.06513       89.28779       -0.68359
H        112.20317       91.24397       -2.69842
H        110.76071       92.34405       -1.09872
H        112.44012       92.81923       -0.72775
N        113.83669       89.06176       -0.96907
C        115.16279       88.49090       -0.81388
C        116.01359       89.07911        0.29509
O        117.10555       88.56648        0.49328
H        113.05716       88.41358       -0.80152
H        115.70106       88.55614       -1.78174
H        115.03377       87.41249       -0.56814
N        115.59964       90.11101        1.08567
C        116.38106       90.62453        2.21224
C        116.46886       89.62189        3.37502
O        117.13825       89.92034        4.35359
C        115.80314       91.98470        2.66523
C        115.95677       93.00116        1.55011
N        114.88199       93.57230        0.95918
O        117.07851       93.30130        1.16774
H        114.70247       90.55872        0.88524
H        117.42098       90.81905        1.86622
H        116.35616       92.36937        3.54895
H        114.73796       91.85932        2.95742
H        113.92578       93.33992        1.25451
H        115.00855       94.24568        0.18817
N        115.88610       88.38984        3.30544
C        116.07689       87.31904        4.26961
C        115.19889       87.39672        5.49502
O        115.63545       86.98601        6.55947
H        115.35736       88.12835        2.46884
H        117.15147       87.15955        4.50424
H        115.73956       86.38594        3.76738
N        113.91377       87.82697        5.39743
C        112.92652       87.74201        6.46712
C        111.62721       87.19172        5.90314
O        111.06875       87.80649        5.00864
C        112.71813       89.12905        7.14021
C        113.53186       89.19104        8.43336
O        113.11564       90.19750        6.31436
H        113.61170       88.25172        4.51303
H        113.25189       87.01470        7.24150
H        111.65849       89.26422        7.45411
H        112.60761       90.13290        5.46830
H        113.19278       88.38314        9.12070
H        114.61431       89.05642        8.22803
H        113.36834       90.16195        8.94359
N        111.08437       86.03030        6.38368
C        109.88329       85.43042        5.81063
C        108.66068       85.95184        6.54068
O        108.48999       85.66769        7.71857
C        109.92743       83.86886        5.85338
C        111.25348       83.32650        5.26577
C        108.70923       83.27759        5.11082
C        111.39001       81.80741        5.39705
H        111.55580       85.53985        7.15765
H        109.83421       85.71175        4.73599
H        109.88383       83.54423        6.91734
H        112.09731       83.75971        5.84014
H        111.36997       83.62316        4.20168
H        108.69766       82.17076        5.14041
H        107.76814       83.59782        5.59004
H        108.70314       83.60536        4.05027
H        111.21026       81.49411        6.44858
H        110.68231       81.27701        4.72851
H        112.41772       81.50307        5.11034
N        107.76089       86.72889        5.88268
C        106.51829       87.20650        6.46376
C        105.55310       86.04639        6.68878
O        105.86711       84.93461        6.30576
C        105.87429       88.24129        5.51908
C        106.70300       89.50209        5.34489
O        106.29258       90.52704        5.86447
O        107.78988       89.59966        4.53182
H        107.97120       86.99986        4.92293
H        106.73322       87.69979        7.43645
H        104.91018       88.54416        5.98136
H        105.63235       87.80232        4.52533
N        104.35800       86.22150        7.32123
C        103.40178       85.13039        7.49420
C        102.81457       84.69708        6.13925
O        102.92799       83.51684        5.84254
C        102.33923       85.48743        8.55969
C        101.34049       84.37359        8.75372
C        101.73971       83.12510        9.26502
C         99.99285       84.57814        8.41597
C        100.80283       82.09981        9.42839
C         99.06201       83.54918        8.57479
C         99.46591       82.31079        9.07999
H        104.13342       87.14941        7.70999
H        103.94177       84.25870        7.93073
H        101.81433       86.41857        8.30596
H        102.84423       85.68795        9.53041
H        102.77139       82.94528        9.54086
H         99.66491       85.53082        8.01888
H        101.11326       81.14093        9.82338
H         98.02763       83.71330        8.30334
H         98.74247       81.51545        9.20151
N        102.20012       85.54777        5.24798
C        101.70541       85.14282        3.92846
C        102.73550       84.40554        3.09123
O        102.38562       83.44514        2.42056
C        101.32988       86.47147        3.25775
C        100.87227       87.28084        4.44344
C        101.96461       86.96325        5.45604
H        100.80041       84.51078        4.06242
H        102.23986       86.98229        2.86435
H        100.59226       86.37490        2.43218
H        100.71306       88.36351        4.25861
H         99.91427       86.83802        4.80882
H        102.90053       87.52225        5.24478
H        101.55801       87.22790        6.43958
N        104.04057       84.78448        3.11930
C        105.10458       84.06604        2.42214
C        105.18948       82.64423        2.95310
O        105.13483       81.71085        2.16491
C        106.41873       84.84541        2.56791
C        106.28305       86.18710        1.81483
C        107.46892       87.05363        1.98807
O        108.48984       86.64229        2.75677
O        107.51218       88.14045        1.43344
H        104.29346       85.59252        3.71110
H        104.89181       84.01782        1.33107
H        107.26464       84.27582        2.12020
H        106.64119       85.01613        3.64547
H        105.41320       86.76925        2.17898
H        106.15083       85.98571        0.73003
N        105.22369       82.40643        4.29054
C        105.12713       81.08055        4.85934
H        104.17895       80.60300        4.52762
H        105.99151       80.45854        4.55343
H        105.10015       81.15015        5.96915
H        105.24546       83.19903        4.93404
Ca       109.51239       88.98514        3.11091
O        110.59774       91.41189        4.67146
H        111.21912       92.17887        4.59210
H        110.16361       91.53193        5.55329
O        108.01249       91.55853        2.47614
H        107.21041       91.74474        3.02373
H        108.40707       92.44911        2.30086

Ca 1.0



