%chk=holoCaM.loop1.water1.frame350.chk
%nprocshared=20
%mem=10GB
%nosave
#b3lyp/svp scf=(tight,noincore,xqc) Test 
#IOP(5/87=12) Density=Current Pop=(MK,readradii) iop(6/33=2) iop(6/42=6)

holoCaM.loop1.water1.frame350 

   0  1 
C          8.26684        5.48838       92.96338
C          8.87018        5.06756       94.27221
O          9.74559        4.21797       94.27705
H          7.48206        6.26119       93.10929
H          9.05334        5.90341       92.30065
H          7.79737        4.60953       92.47357
N          8.45416        5.63759       95.43273
C          8.94771        5.24618       96.74768
C          8.48454        3.82663       97.08133
O          7.29192        3.56111       97.03099
C          8.45207        6.27579       97.77785
C          8.89496        5.96111       99.16690
O         10.08081        5.85974       99.43283
O          7.97109        5.80656      100.13001
H          7.75373        6.39366       95.37398
H         10.06079        5.30226       96.75425
H          7.34283        6.33348       97.75768
H          8.85979        7.27469       97.50278
N          9.39308        2.86868       97.43098
C          9.07922        1.45890       97.68240
C          9.36736        1.04202       99.12391
O          9.21288       -0.12993       99.43680
C          9.90686        0.56509       96.72397
C          9.76226        0.92405       95.23625
C          8.31859        0.82082       94.72548
C          8.22138        1.23301       93.25202
N          6.83526        1.18520       92.78976
H         10.37208        3.15675       97.51433
H          8.00077        1.26090       97.51002
H          9.61677       -0.49912       96.86619
H         10.98419        0.65713       96.98398
H         10.40831        0.23951       94.64421
H         10.14393        1.95139       95.08570
H          7.66515        1.50059       95.30729
H          7.95480       -0.22237       94.84918
H          8.84876        0.56066       92.62678
H          8.60058        2.26883       93.13270
H          6.79503        1.50412       91.79503
H          6.46987        0.20759       92.85204
H          6.24118        1.82221       93.36988
N          9.74123        1.95104      100.06501
C          9.99949        1.63155      101.46703
C          8.87729        2.19968      102.30726
O          8.24649        1.47049      103.05943
C         11.34955        2.26201      101.88501
C         12.48863        1.59612      101.18044
O         13.13471        2.21010      100.17674
O         12.77307        0.43983      101.44570
H          9.80789        2.94036       99.79262
H         10.03419        0.53374      101.64820
H         11.52163        2.17370      102.97965
H         11.34066        3.34455      101.63354
N          8.58773        3.51813      102.21355
C          7.58295        4.22449      102.98553
C          8.28504        5.26683      103.81737
O          8.11215        5.29776      105.02658
H          9.14029        4.06408      101.54514
H          6.99558        3.54201      103.63726
H          6.87976        4.71633      102.28056
N          9.17475        6.10272      103.21548
C         10.03565        7.04309      103.90273
C          9.99655        8.41435      103.23141
O         10.73992        9.28997      103.65093
C         11.44760        6.41189      103.99979
C         12.12641        6.02535      102.71205
O         13.24902        5.28685      102.77073
O         11.67032        6.32950      101.62453
H          9.33529        6.00773      102.20840
H          9.70647        7.17904      104.95605
H         11.32489        5.46790      104.57643
H         12.12915        7.07004      104.57826
N          9.10951        8.69520      102.22473
C          8.96254       10.00818      101.62331
C         10.10003       10.42978      100.72180
O         10.02427       11.54716      100.22829
H          8.43068        7.98716      101.91544
H          8.81953       10.75798      102.43149
H          8.04553       10.01310      100.99439
N         11.17274        9.63010      100.44406
C         12.28065       10.07245       99.60041
C         12.51437        9.14852       98.41560
O         11.98010        8.04799       98.36782
C         13.57622       10.18803      100.44315
C         13.45427       11.24528      101.55116
O         13.94234        8.93962      100.97916
H         11.22560        8.69112      100.85863
H         12.05981       11.07594       99.17558
H         14.40708       10.52327       99.78587
H         13.35622        8.74800      101.75763
H         13.23503       12.23862      101.10595
H         12.64371       10.98638      102.26476
H         14.41006       11.31176      102.11285
N         13.33696        9.56885       97.41370
C         13.75670        8.77068       96.26913
C         15.27182        8.68521       96.30503
O         15.94009        9.70327       96.43494
C         13.24989        9.38825       94.93198
C         11.69839        9.39012       94.83186
C         13.85593        8.67279       93.70434
C         11.03328        8.00303       94.84893
H         13.71650       10.52767       97.47456
H         13.35310        7.73820       96.32808
H         13.59010       10.44654       94.88256
H         11.40988        9.88977       93.88083
H         11.27545        9.99040       95.66451
H         14.96126        8.76832       93.69459
H         13.60888        7.59363       93.69734
H         13.48207        9.13214       92.76512
H         11.38599        7.36666       94.01151
H         11.21248        7.47515       95.80588
H          9.93555        8.12171       94.73638
N         15.87463        7.48063       96.14771
C         17.31022        7.25428       96.20882
C         17.85856        6.96608       94.82429
O         17.11757        7.01143       93.85182
C         17.58157        6.03631       97.13520
C         17.08196        6.25427       98.56394
O         17.02752        4.86852       96.57946
H         15.27702        6.67046       95.94871
H         17.84217        8.14839       96.60243
H         18.67241        5.86307       97.22751
H         16.09025        4.77832       96.88450
H         15.98331        6.41969       98.57462
H         17.30785        5.35154       99.17253
H         17.59078        7.13078       99.01399
N         19.16561        6.61948       94.67547
C         19.73413        6.12510       93.42710
C         18.99459        4.86883       92.98606
O         18.57003        4.80919       91.84235
C         21.24782        5.82621       93.58917
C         22.04842        7.11838       93.80027
O         21.46052        4.94805       94.66621
H         19.76999        6.64505       95.50953
H         19.63058        6.89343       92.62689
H         21.60601        5.35409       92.64485
H         22.39696        4.62655       94.60153
H         21.73037        7.64855       94.72153
H         23.12982        6.88134       93.88598
H         21.91091        7.79522       92.93006
N         18.80243        3.82421       93.84444
C         18.12090        2.58816       93.45557
C         16.63735        2.76903       93.09957
O         16.04432        1.80103       92.64424
C         18.34235        1.48239       94.52509
C         17.72050        1.75304       95.90757
C         18.13603        0.67784       96.92149
C         17.50933        0.93162       98.30155
N         17.97618       -0.05611       99.27544
H         19.19819        3.90104       94.79123
H         18.62955        2.21802       92.53827
H         19.44147        1.36672       94.65117
H         17.94411        0.51678       94.14380
H         16.61665        1.77274       95.81886
H         18.07897        2.72054       96.30112
H         19.24395        0.69364       97.02184
H         17.82383       -0.32511       96.55840
H         16.40080        0.87639       98.22006
H         17.78295        1.94909       98.66091
H         17.51089        0.11943      100.19530
H         17.73992       -1.02301       98.95460
H         19.01137        0.02905       99.40174
N         15.97288        3.95482       93.26434
C         14.56229        4.16338       92.91656
C         14.37576        5.27255       91.88651
O         13.23884        5.53388       91.51647
C         13.76380        4.50032       94.19243
C         13.97481        3.40297       95.22889
C         13.29061        3.64541       96.52567
O         13.54709        4.72590       97.29330
O         12.57382        2.76613       96.96485
H         16.46567        4.74012       93.69712
H         14.12918        3.23714       92.47949
H         12.67980        4.60018       93.96048
H         14.11511        5.46312       94.60104
H         15.04731        3.31737       95.46213
H         13.62833        2.43297       94.80678
N         15.42773        5.96815       91.36974
C         15.26117        7.02336       90.39615
H         14.64389        7.84076       90.82296
H         16.25495        7.43812       90.11988
H         14.77709        6.62329       89.48091
H         16.38473        5.75650       91.66260
Ca        12.74058        4.25920       99.33062
O         15.45005        6.34409      101.21819
H         15.02157        6.77116      101.99865
H         16.24127        6.91324      101.05566

Ca 1.0



