%chk=holoCaM-CaMKII.loop1.water2.frame434.chk
%nprocshared=20
%mem=10GB
%nosave
#b3lyp/svp scf=(tight,noincore,xqc) Test 
#IOP(5/87=12) Density=Current Pop=(MK,readradii) iop(6/33=2) iop(6/42=6)

holoCaM-CaMKII.loop1.water2.frame434 

   0  1 
C         90.88827       70.69293       33.22341
C         92.35786       70.97630       33.14435
O         93.10223       70.44882       33.95587
H         90.32882       71.22940       32.42807
H         90.71893       69.60278       33.09400
H         90.49990       71.01163       34.21200
N         92.85298       71.77728       32.16162
C         94.27723       72.02561       31.98097
C         94.83294       72.85838       33.13819
O         94.60636       74.06032       33.17088
C         94.47424       72.72931       30.62078
C         95.89530       72.92687       30.21982
O         96.90470       72.48555       30.98596
O         96.13586       73.48678       29.16723
H         92.18812       72.16991       31.47633
H         94.78739       71.03594       31.93278
H         93.96790       73.71942       30.64153
H         93.99759       72.11416       29.82574
N         95.50597       72.26236       34.16639
C         95.94750       72.99073       35.35635
C         97.23208       73.78856       35.17024
O         97.54766       74.56076       36.06575
C         96.14422       72.03920       36.56264
C         94.90299       71.21838       36.95896
C         93.65931       72.09839       37.13868
C         92.48847       71.32179       37.74152
N         91.29224       72.16246       37.78760
H         95.55526       71.23813       34.16471
H         95.15311       73.71967       35.62328
H         96.42418       72.65766       37.44432
H         96.98327       71.33487       36.36452
H         95.14539       70.69924       37.91250
H         94.68554       70.43930       36.19749
H         93.35119       72.48492       36.14314
H         93.89508       72.95552       37.80649
H         92.76143       71.00201       38.77221
H         92.27429       70.41564       37.13301
H         90.98819       72.39541       36.81364
H         90.52292       71.64255       38.26666
H         91.48630       73.04604       38.31317
N         98.04524       73.63939       34.08644
C         99.29207       74.39222       33.91544
C         99.27463       75.25012       32.64952
O        100.24042       75.96564       32.42159
C        100.52352       73.45221       33.95007
C        100.51899       72.45412       32.83247
O        101.34458       72.53594       31.93747
O         99.57876       71.49422       32.78347
H         97.77841       72.95787       33.36601
H         99.43085       75.10137       34.76022
H        100.57623       72.91197       34.91943
H        101.43735       74.08310       33.87017
N         98.20821       75.26319       31.79823
C         98.11763       76.12317       30.63265
C         99.18507       75.85941       29.59351
O         99.90725       76.78918       29.26279
H         97.38351       74.68612       31.99899
H         98.16588       77.18371       30.96487
H         97.12763       75.97081       30.15026
N         99.31194       74.63677       28.99668
C        100.24192       74.38103       27.89028
C         99.52961       74.00567       26.59303
O        100.20593       73.88164       25.58192
C        101.32688       73.35836       28.29309
C        100.87042       71.99326       28.72726
O         99.58191       71.62159       28.71962
O        101.69509       71.22288       29.19228
H         98.70494       73.87350       29.32600
H        100.79322       75.31508       27.64869
H        101.86959       73.79743       29.15872
H        102.05439       73.23474       27.46319
N         98.17843       73.83121       26.53067
C         97.44270       73.55545       25.30769
C         96.87455       72.15272       25.27978
O         96.08295       71.87193       24.39045
H         97.61678       73.90165       27.38187
H         98.07208       73.68064       24.40113
H         96.61684       74.29730       25.24321
N         97.29190       71.19412       26.15740
C         96.84827       69.80404       26.11636
C         96.36414       69.33444       27.48131
O         96.50529       70.05112       28.46456
C         98.00281       68.89926       25.60520
C         98.27014       69.08822       24.10615
O         99.18185       69.10447       26.34467
H         98.01223       71.43538       26.84857
H         95.98529       69.69294       25.42326
H         97.71176       67.83351       25.71904
H         99.60692       69.94841       26.03634
H         99.08614       68.40459       23.78741
H         97.35698       68.83556       23.52663
H         98.56807       70.13244       23.87695
N         95.73485       68.12619       27.58883
C         95.21800       67.57081       28.83645
C         95.79327       66.16893       29.02358
O         95.49637       65.29126       28.22336
C         93.65760       67.54369       28.78850
C         93.10046       68.98807       28.65926
C         93.07113       66.84433       30.03259
C         91.59288       69.04704       28.40065
H         95.57663       67.58130       26.72642
H         95.51966       68.20727       29.69873
H         93.35240       66.96352       27.88846
H         93.57819       69.49626       27.79576
H         93.34210       69.56886       29.57697
H         91.96746       66.77378       29.97664
H         93.43197       65.80020       30.10092
H         93.35515       67.38533       30.95976
H         91.00891       68.61752       29.23786
H         91.28136       70.10677       28.28595
H         91.34723       68.50521       27.46223
N         96.63471       65.89204       30.06028
C         97.19062       64.56067       30.31546
C         96.12974       63.64196       30.91542
O         95.01411       64.07818       31.14070
C         98.41909       64.62409       31.27522
C         99.54872       65.52071       30.75557
O         98.04897       65.00077       32.57453
H         96.90862       66.66930       30.66710
H         97.56229       64.14036       29.35492
H         98.85892       63.60849       31.34848
H         97.88602       65.97543       32.56975
H         99.86668       65.19672       29.74262
H         99.21967       66.57576       30.72377
H        100.41936       65.46469       31.44204
N         96.42772       62.35315       31.23891
C         95.50211       61.46282       31.94030
C         95.20340       62.00986       33.33502
O         94.04273       62.15369       33.69139
C         96.11870       60.04357       32.04025
C         95.16763       59.04559       32.71281
O         96.40973       59.58491       30.74433
H         97.36449       61.99613       30.99952
H         94.55902       61.37230       31.35490
H         97.05967       60.10730       32.63735
H         97.14114       58.91879       30.82918
H         94.22170       58.96549       32.13563
H         95.64475       58.04337       32.75232
H         94.93372       59.35519       33.75268
N         96.23194       62.33948       34.16684
C         96.08934       62.82583       35.54111
C         95.17465       64.04036       35.61413
O         94.21786       64.01674       36.37573
C         97.50191       63.14071       36.09105
C         97.53818       63.56614       37.56871
C         98.96997       63.89292       38.04336
C         99.90617       62.66879       38.08256
N        101.24923       63.04900       38.52273
H         97.18679       62.23825       33.78823
H         95.65108       62.01514       36.16575
H         97.96412       63.94251       35.47334
H         98.10590       62.21822       35.97455
H         97.10123       62.77109       38.21163
H         96.92647       64.48610       37.68747
H         98.90605       64.30390       39.07458
H         99.40155       64.67949       37.38651
H         99.99396       62.19721       37.08198
H         99.48590       61.91736       38.78711
H        101.20878       63.55361       39.43755
H        101.82954       62.18647       38.63804
H        101.69835       63.66055       37.80226
N         95.39639       65.12339       34.82141
C         94.54986       66.31669       34.80652
C         93.11019       65.93868       34.49999
O         92.23461       66.25306       35.29473
C         95.09320       67.34687       33.78393
C         96.46571       67.89074       34.23418
C         97.07514       68.84799       33.25129
O         97.47484       70.06041       33.66145
O         97.28426       68.51410       32.09933
H         96.19225       65.07270       34.17501
H         94.56716       66.80033       35.80930
H         94.38984       68.20167       33.70091
H         95.17310       66.86676       32.78226
H         97.18234       67.06203       34.37629
H         96.35432       68.40234       35.21459
N         92.79589       65.22073       33.39063
C         91.44660       64.78573       33.10222
H         90.78254       65.66428       32.96576
H         91.43594       64.17769       32.17221
H         91.06554       64.15563       33.93524
H         93.54348       64.94543       32.74748
Ca        99.02668       70.82638       30.72620
O         99.17210       68.11360       28.84087
H         99.59298       69.00291       28.92830
H         99.90967       67.52957       28.53277
O        100.54449       68.61801       32.59363
H        101.13751       69.30994       32.20575
H        100.28335       68.98078       33.47739

Ca 1.0



