%chk=holoCaM-CaMKII.loop1.water2.frame191.chk
%nprocshared=20
%mem=10GB
%nosave
#b3lyp/svp scf=(tight,noincore,xqc) Test 
#IOP(5/87=12) Density=Current Pop=(MK,readradii) iop(6/33=2) iop(6/42=6)

holoCaM-CaMKII.loop1.water2.frame191 

   0  1 
C         12.15113       76.66362       20.63730
C         11.33920       77.84016       20.20051
O         11.83693       78.95746       20.22638
H         13.16591       76.98515       20.95289
H         11.64587       76.15456       21.48302
H         12.24985       75.95591       19.78643
N         10.07004       77.65401       19.74885
C          9.27513       78.74526       19.21554
C          8.97560       79.77859       20.30162
O          8.48040       79.38941       21.35030
C          7.97560       78.20800       18.57130
C          7.40775       79.21802       17.62377
O          8.11156       80.32919       17.36701
O          6.36555       79.00268       17.03703
H          9.69026       76.69441       19.72401
H          9.88605       79.18942       18.40560
H          7.24086       77.92641       19.35630
H          8.19608       77.31259       17.95053
N          9.26224       81.10594       20.12469
C          9.16994       82.10385       21.19252
C          8.01007       83.08930       21.02508
O          7.68580       83.74319       22.00734
C         10.54876       82.79315       21.30889
C         10.64490       83.86479       22.40575
C         12.05424       84.47470       22.52338
C         13.15774       83.49232       22.96363
N         12.87690       82.89500       24.27076
H          9.61298       81.41624       19.21055
H          8.95961       81.58289       22.15289
H         10.80597       83.26616       20.33470
H         11.28778       81.98957       21.50947
H         10.32702       83.44638       23.38243
H          9.95729       84.69801       22.15095
H         12.01039       85.29985       23.26673
H         12.34205       84.91913       21.54496
H         14.11271       84.05973       23.02504
H         13.30378       82.69089       22.20869
H         12.04841       82.26098       24.21419
H         13.70022       82.32440       24.56910
H         12.70789       83.64268       24.98238
N          7.29657       83.21558       19.86810
C          6.05446       83.99622       19.77865
C          4.86475       83.09664       19.42414
O          3.75971       83.61161       19.32085
C          6.17692       85.26132       18.87683
C          6.56755       85.05520       17.44484
O          6.95835       83.85396       17.03300
O          6.60976       85.99887       16.67335
H          7.60712       82.69077       19.04050
H          5.79409       84.41772       20.77499
H          6.92715       85.94855       19.32496
H          5.19588       85.78445       18.89025
N          4.98727       81.73463       19.33607
C          3.84817       80.83541       19.22189
C          3.14987       80.80877       17.87875
O          2.16183       80.09360       17.78256
H          5.90066       81.28626       19.48799
H          3.11499       81.09139       20.01835
H          4.19458       79.79653       19.41503
N          3.57895       81.51772       16.79425
C          2.86466       81.47885       15.51407
C          2.84953       80.09466       14.84380
O          2.13255       79.94702       13.86426
C          3.40252       82.56195       14.54592
C          4.84326       82.39544       14.15968
O          5.37443       83.20460       13.41746
O          5.55971       81.36790       14.62894
H          4.40281       82.12852       16.89133
H          1.80658       81.75026       15.72550
H          3.29471       83.55434       15.03363
H          2.79279       82.56269       13.61740
N          3.60677       79.04810       15.29275
C          3.56973       77.70686       14.71900
C          4.84941       77.31167       13.99991
O          4.90776       76.18339       13.53054
H          4.23720       79.19150       16.08503
H          2.74817       77.61044       13.97698
H          3.36048       76.98447       15.53735
N          5.87310       78.19250       13.79403
C          7.03571       77.90768       12.95399
C          8.34848       78.20635       13.66841
O          8.33865       78.72359       14.77605
C          6.94129       78.74283       11.64928
C          5.68486       78.40152       10.83182
O          6.99711       80.12212       11.92156
H          5.78803       79.13696       14.16898
H          7.04789       76.83164       12.67263
H          7.80884       78.49917       11.00086
H          6.11110       80.41021       12.26198
H          5.67397       78.99873        9.89589
H          5.68119       77.32325       10.56788
H          4.76015       78.63325       11.40292
N          9.53167       77.87441       13.07308
C         10.85045       78.10069       13.66004
C         11.71278       78.90108       12.68884
O         11.80584       78.53524       11.52489
C         11.50412       76.73877       14.04143
C         10.63322       76.04957       15.13108
C         12.94707       76.94679       14.55247
C         11.14216       74.68056       15.58203
H          9.49950       77.39025       12.16244
H         10.77063       78.66981       14.60496
H         11.55071       76.09170       13.13758
H          9.60681       75.89763       14.73559
H         10.56251       76.70702       16.02713
H         12.95510       77.58055       15.46387
H         13.43811       75.98036       14.77975
H         13.57661       77.42504       13.77542
H         12.12893       74.75755       16.08139
H         10.43276       74.25600       16.32384
H         11.21138       73.99031       14.71604
N         12.44032       79.96498       13.13926
C         13.34492       80.76065       12.30782
C         14.79124       80.46596       12.66686
O         15.04504       79.67098       13.55576
C         13.05642       82.27845       12.49748
C         11.67380       82.67929       11.98194
O         13.23539       82.66628       13.84099
H         12.40253       80.18208       14.14498
H         13.22844       80.49735       11.23366
H         13.77079       82.87498       11.89362
H         12.41013       82.45001       14.34831
H         11.59463       82.45756       10.89694
H         10.88966       82.12184       12.52519
H         11.52017       83.76970       12.13397
N         15.80179       81.09487       12.00490
C         17.21534       80.95688       12.35359
C         17.44663       81.38402       13.79556
O         18.13477       80.68757       14.52786
C         18.10404       81.82260       11.41774
C         18.05266       81.33719        9.96315
O         17.71128       83.17134       11.48218
H         15.54753       81.73883       11.24221
H         17.54086       79.89838       12.23644
H         19.15804       81.72126       11.77062
H         18.47455       83.71387       11.15256
H         18.39005       80.28116        9.90037
H         17.02953       81.41390        9.54184
H         18.73049       81.95705        9.33840
N         16.87306       82.52700       14.26137
C         17.07273       83.06982       15.60244
C         16.68602       82.06371       16.66534
O         17.48868       81.76119       17.53703
C         16.23660       84.36662       15.80551
C         16.45498       85.46473       14.74256
C         17.92301       85.87216       14.58876
C         18.08978       86.89573       13.46139
N         19.49699       87.25368       13.29501
H         16.25248       83.02694       13.61362
H         18.14675       83.31890       15.73691
H         16.47765       84.78266       16.80826
H         15.15090       84.12291       15.79442
H         15.84767       86.35291       15.02323
H         16.07288       85.12600       13.75884
H         18.53132       84.98531       14.31635
H         18.29447       86.28941       15.54964
H         17.49525       87.80849       13.68579
H         17.71366       86.45535       12.50965
H         20.06087       86.40011       13.07458
H         19.58697       87.93025       12.50353
H         19.85806       87.69831       14.16984
N         15.45230       81.50165       16.63323
C         14.95330       80.54259       17.61361
C         15.86123       79.32645       17.66701
O         16.35551       79.00805       18.74000
C         13.49074       80.19278       17.26358
C         12.60390       81.44976       17.45180
C         11.20808       81.31586       16.93306
O         10.37598       82.36864       17.02913
O         10.82579       80.29407       16.39223
H         14.84295       81.76779       15.84523
H         14.94802       81.00469       18.62692
H         13.10507       79.38146       17.91720
H         13.45536       79.83662       16.21239
H         13.02928       82.31976       16.91489
H         12.56618       81.70307       18.53368
N         16.18377       78.63947       16.54031
C         17.13132       77.54634       16.54455
H         18.11161       77.90045       16.93269
H         16.75812       76.71617       17.17865
H         17.28383       77.17346       15.50906
H         15.78158       78.92852       15.64452
Ca         7.64168       82.02178       16.05565
O          9.63421       84.58308       15.26518
H          8.69291       84.80780       15.05696
H         10.15970       85.32185       14.86852
O          8.44452       82.66386       13.25029
H          8.66337       81.72320       13.03396
H          8.50398       83.14255       12.38590

Ca 1.0



