%chk=holoCaM.loop2.water3.frame378.chk
%nprocshared=20
%mem=10GB
%nosave
#b3lyp/svp scf=(tight,noincore,xqc) Test 
#IOP(5/87=12) Density=Current Pop=(MK,readradii) iop(6/33=2) iop(6/42=6)

holoCaM.loop2.water3.frame378 

   -2  1 
C         84.56738      104.06664       95.63522
C         84.11614      103.05503       96.63793
O         83.83916      101.93045       96.24282
H         85.49785      103.71537       95.14287
H         83.77123      104.18327       94.86937
H         84.75202      105.05114       96.11072
N         84.00808      103.37189       97.96118
C         83.51149      102.40345       98.92169
C         82.06893      102.06893       98.59776
O         81.23584      102.96273       98.56162
C         83.66465      102.87763      100.38147
C         83.24552      101.79644      101.36166
O         83.37867      100.49008      101.02094
O         82.60005      102.09812      102.34846
H         84.28644      104.31080       98.28515
H         84.15105      101.51149       98.83321
H         83.10698      103.82109      100.57126
H         84.74234      103.08892      100.55866
N         81.71961      100.78461       98.32475
C         80.36656      100.35288       98.00812
C         79.40469      100.56284       99.16734
O         78.25483      100.88863       98.90918
C         80.37095       98.87525       97.60777
H         82.46249      100.07850       98.32674
H         80.00812      100.92370       97.12288
H         80.72324       98.23847       98.44699
H         79.35034       98.55605       97.30909
H         81.04895       98.72851       96.73863
N         79.81045      100.43745      100.46703
C         78.93206      100.69653      101.60970
C         79.10026      102.12670      102.15058
O         78.34817      102.51384      103.03322
C         78.96989       99.52894      102.63195
C         80.30346       99.16753      103.22698
O         81.22284       98.79003      102.51842
O         80.44568       99.12722      104.56416
H         80.80214      100.23763      100.64803
H         77.87666      100.70436      101.25989
H         78.60509       98.61533      102.11392
H         78.25635       99.74966      103.45559
N         79.93966      103.01221      101.53300
C         79.89781      104.46545      101.67598
C         80.41624      105.06414      102.96386
O         80.45008      106.28366      103.04819
H         80.54417      102.66790      100.78633
H         78.86052      104.81569      101.49030
H         80.53746      104.89348      100.87145
N         80.85734      104.30544      103.99549
C         81.43711      104.86627      105.21859
C         82.72325      105.61725      104.90178
O         82.89099      106.74650      105.33908
C         81.70291      103.71814      106.20596
C         80.38436      103.09991      106.60919
N         80.05507      101.85158      106.21172
O         79.59113      103.75142      107.27236
H         80.80034      103.28192      103.90223
H         80.72308      105.56758      105.70662
H         82.22403      104.07604      107.11916
H         82.35769      102.96879      105.71396
H         80.69957      101.30948      105.62366
H         79.14188      101.44361      106.46200
N         83.64617      105.04474      104.08791
C         84.88731      105.66620      103.64487
C         86.07940      104.76577      103.90130
O         87.09902      105.23326      104.38626
H         83.39861      104.13043      103.69539
H         85.05128      106.67049      104.09504
H         84.81016      105.80154      102.54490
N         86.00358      103.44379      103.59130
C         87.08149      102.47421      103.71106
C         87.07538      101.68168      102.42645
O         86.01825      101.19846      102.06443
C         86.82219      101.56750      104.93155
C         87.90600      100.49792      105.09387
O         86.78619      102.37081      106.08358
H         85.10685      103.07470      103.25452
H         88.06247      102.97308      103.86872
H         85.85071      101.05495      104.79988
H         86.28903      101.86466      106.77771
H         87.69151       99.88475      105.99473
H         87.92207       99.82020      104.21409
H         88.90287      100.97242      105.20974
N         88.18611      101.51138      101.66865
C         88.12403      100.88629      100.35327
C         88.74850       99.50644      100.43001
O         89.90519       99.37489      100.80409
C         88.77144      101.82277       99.29822
C         88.09526      103.22348       99.34407
C         88.65541      101.21369       97.88477
C         88.85506      104.28528       98.55172
H         89.09311      101.85858      102.01437
H         87.06632      100.75810      100.03403
H         89.84501      101.93743       99.56372
H         88.07462      103.60171      100.38757
H         87.04161      103.15728       98.99071
H         87.58711      101.08955       97.60011
H         89.14817      101.85228       97.12562
H         89.14899      100.22275       97.84061
H         88.35010      105.26656       98.67692
H         89.89002      104.37404       98.94757
H         88.89133      104.05063       97.47082
N         88.00438       98.42554      100.06256
C         88.47185       97.05293      100.03607
C         88.95256       96.72486       98.62673
O         88.87166       97.58597       97.76904
C         87.33090       96.12062      100.51577
C         87.03263       96.27635      101.99588
O         87.54517       95.48038      102.76579
O         86.26135       97.25892      102.53085
H         87.07505       98.58813       99.67088
H         89.36040       96.92902      100.69501
H         87.67762       95.07562      100.36610
H         86.40591       96.23402       99.90717
N         89.56275       95.54034       98.33016
C         90.18321       95.28865       97.02743
C         89.18754       95.20842       95.87176
O         89.43686       95.89538       94.89038
C         91.13969       94.07601       97.07479
C         92.02327       93.94968       95.83963
C         92.84804       95.01766       95.42013
C         92.06243       92.74603       95.11325
C         93.67569       94.88356       94.30041
C         92.90373       92.61336       94.00076
C         93.70667       93.68137       93.59349
H         89.68286       94.84469       99.08212
H         90.84997       96.15579       96.83372
H         90.56841       93.14252       97.25947
H         91.82789       94.22669       97.93469
H         92.86173       95.95898       95.95193
H         91.45556       91.90293       95.41529
H         94.30003       95.71078       93.98457
H         92.93813       91.67941       93.45503
H         94.35683       93.57674       92.73339
N         88.04681       94.43993       95.86473
C         87.14054       94.40475       94.72133
C         86.43213       95.73812       94.51079
O         85.84518       95.93707       93.45696
C         86.19820       93.24061       95.04052
C         86.12334       93.29393       96.55347
C         87.57164       93.60287       96.94842
H         87.70065       94.16916       93.79009
H         85.22579       93.24479       94.50131
H         86.73078       92.29493       94.79328
H         85.49115       94.17320       96.81441
H         85.69454       92.39498       97.04728
H         87.54218       94.11786       97.92976
H         88.20501       92.69287       96.99808
N         86.46950       96.70612       95.46295
C         85.96923       98.05971       95.27831
C         86.98171       98.86072       94.47854
O         86.60089       99.51507       93.51876
C         85.69303       98.67554       96.65765
C         84.55694       97.87999       97.34028
C         84.27444       98.35416       98.71810
O         84.96422       99.38306       99.22459
O         83.39764       97.82341       99.38041
H         86.89648       96.48577       96.37372
H         84.98950       98.06240       94.74953
H         85.38276       99.73789       96.55281
H         86.61457       98.64993       97.27665
H         84.82103       96.80542       97.41764
H         83.62783       97.98040       96.73805
N         88.30776       98.80184       94.78383
C         89.32847       99.48556       94.02272
H         90.33378       99.20528       94.40901
H         89.27328       99.18328       92.95531
H         89.20286      100.58313       94.11615
H         88.61851       98.20885       95.55688
Ca        84.83801       98.89364      101.81663
O         84.12378       97.65247      104.71843
H         83.88535       98.08994      105.57375
H         85.04607       97.32404      104.86212
O         83.48914      100.47617      104.55570
H         83.65243      101.45073      104.55241
H         82.58034      100.38323      104.18682
O         83.30691       95.89837      101.74570
H         83.17264       95.55158      100.82805
H         83.99688       95.30464      102.13478

Ca 1.0



