%chk=holoCaM-CaMKII.loop2.water2.frame236.chk
%nprocshared=20
%mem=10GB
%nosave
#b3lyp/svp scf=(tight,noincore,xqc) Test 
#IOP(5/87=12) Density=Current Pop=(MK,readradii) iop(6/33=2) iop(6/42=6)

holoCaM-CaMKII.loop2.water2.frame236 

   -2  1 
C         91.49546       29.06268       47.28739
C         91.56691       28.59234       48.71480
O         90.65066       27.94367       49.19449
H         92.35624       28.63619       46.72373
H         90.56010       28.72927       46.79276
H         91.56458       30.16942       47.24487
N         92.69107       28.84778       49.42862
C         92.98528       28.29910       50.74868
C         92.19570       28.93454       51.88928
O         92.16452       30.15358       51.98373
C         94.48638       28.49508       51.00899
C         94.89921       27.88595       52.30137
O         95.46954       28.65664       53.24625
O         94.70581       26.69776       52.50265
H         93.43606       29.37349       48.94256
H         92.80954       27.20116       50.72779
H         94.73673       29.57835       51.01271
H         95.06252       28.00064       50.19752
N         91.64598       28.14463       52.86630
C         90.99662       28.66506       54.06804
C         91.67272       28.23768       55.38312
O         91.26381       28.77317       56.40487
C         89.53099       28.21335       54.08377
H         91.71189       27.12679       52.76192
H         91.01248       29.77616       54.04831
H         89.01253       28.56463       53.16686
H         89.46825       27.10351       54.12381
H         88.99739       28.62930       54.96579
N         92.64254       27.26776       55.47410
C         93.18872       26.81782       56.76961
C         94.71864       26.67107       56.82959
O         95.23160       26.44866       57.91797
C         92.50714       25.49976       57.18259
C         92.65887       24.42272       56.14797
O         93.76631       24.04688       55.81004
O         91.56784       23.87318       55.58211
H         92.90463       26.75044       54.62532
H         92.93792       27.56204       57.55689
H         91.42279       25.69304       57.33008
H         92.92135       25.14595       58.15208
N         95.50981       26.77278       55.72968
C         96.96396       26.69450       55.74923
C         97.48720       25.34346       56.18209
O         98.24124       25.28061       57.14248
H         95.06769       26.93829       54.83050
H         97.36741       27.49692       56.40459
H         97.34638       26.87806       54.72080
N         97.15838       24.22133       55.48375
C         97.68859       22.89147       55.77776
C         98.46644       22.31302       54.58057
O         98.82734       21.14493       54.63638
C         96.54496       21.95180       56.24697
C         95.39284       21.82536       55.25561
N         94.48846       20.74477       55.62660
O         95.90516       21.57667       54.00490
H         96.50620       24.31522       54.69025
H         98.40696       22.91865       56.62571
H         96.12313       22.32455       57.20436
H         96.97569       20.94386       56.43721
H         93.98366       21.01224       56.49962
H         93.77574       20.63866       54.86869
N         98.81345       23.07053       53.49450
C         99.61638       22.55335       52.39102
C         98.86237       21.71277       51.36430
O         99.53055       21.16246       50.50111
H         98.62113       24.07968       53.50468
H        100.46968       21.97660       52.81127
H        100.05826       23.40595       51.82989
N         97.49711       21.62132       51.32939
C         96.75479       20.90907       50.27638
C         95.37237       21.57810       49.98944
O         94.44845       21.34285       51.00904
C         96.59892       19.37428       50.56222
C         97.92480       18.61819       50.52628
O         95.93019       19.07699       51.76698
H         96.98045       22.21157       51.98224
H         97.31818       21.03990       49.32645
H         95.98137       18.95322       49.74125
H         95.92567       19.87124       52.35121
H         98.60404       18.94842       51.33691
H         97.73502       17.53185       50.65928
H         98.41245       18.76469       49.53844
N         94.79545       21.09949       48.72365
C         93.50527       21.76679       48.43016
C         92.39769       20.83059       48.90881
O         92.24422       19.75389       48.34888
C         93.35029       22.12298       46.91182
C         94.42523       23.15738       46.45340
C         91.94356       22.69057       46.63613
C         94.40356       23.44678       44.95114
H         95.50161       21.19516       47.96624
H         93.43468       22.73082       48.98668
H         93.47080       21.18499       46.32579
H         95.44873       22.79671       46.66048
H         94.29338       24.11044       47.00831
H         91.78493       22.86801       45.55667
H         91.15345       21.97822       46.93985
H         91.80162       23.64557       47.18213
H         95.22932       24.14597       44.70134
H         94.55193       22.50579       44.37982
H         93.45840       23.92935       44.63540
N         91.61191       21.16781       49.97376
C         90.53851       20.31476       50.48930
C         89.34130       20.32916       49.54566
O         89.39142       21.01575       48.53317
C         90.09655       20.78561       51.89791
C         91.20339       20.68982       52.91586
O         92.20685       21.37351       52.81062
O         91.07875       19.86037       53.96964
H         91.81219       22.05236       50.45680
H         90.91496       19.27263       50.59599
H         89.27273       20.13425       52.25666
H         89.72002       21.83025       51.86049
N         88.21986       19.59237       49.80586
C         87.04533       19.62734       48.94131
C         86.39973       21.01906       48.93922
O         86.17639       21.51551       47.84925
C         86.01865       18.52489       49.28259
C         84.93963       18.45243       48.22621
C         83.63332       18.88573       48.50703
C         85.23650       17.95395       46.94380
C         82.64412       18.82713       47.51989
C         84.24112       17.88448       45.96471
C         82.94648       18.32356       46.25157
H         88.20822       18.97206       50.63041
H         87.39117       19.38714       47.90898
H         85.56397       18.69224       50.26917
H         86.51690       17.53245       49.33509
H         83.38505       19.28336       49.48297
H         86.23511       17.60834       46.70567
H         81.64231       19.17283       47.73812
H         84.47373       17.49076       44.98328
H         82.17805       18.27396       45.49090
N         86.07418       21.73362       50.07562
C         85.51751       23.08901       50.03697
C         86.42530       24.13784       49.40601
O         85.98359       25.27007       49.25415
C         85.34354       23.46454       51.51443
C         85.12902       22.12056       52.16147
C         86.17320       21.27001       51.44249
H         84.54063       23.02573       49.50683
H         86.31514       23.83627       51.91996
H         84.56872       24.23728       51.70878
H         85.21350       22.11820       53.26856
H         84.11406       21.76251       51.87226
H         87.19684       21.48175       51.81726
H         85.91145       20.21656       51.60965
N         87.71093       23.85019       49.05271
C         88.64373       24.81119       48.48189
C         88.85502       24.53943       46.99750
O         89.44072       25.37696       46.32747
C         89.99446       24.72215       49.22765
C         89.86731       24.95314       50.74446
C         91.16161       24.72548       51.48210
O         91.16911       24.76988       52.82641
O         92.19815       24.47398       50.88902
H         88.06804       22.90280       49.20581
H         88.22393       25.83836       48.56440
H         90.72193       25.43984       48.79368
H         90.39421       23.69553       49.07639
H         89.13298       24.23205       51.15906
H         89.50695       25.98428       50.94752
N         88.39912       23.39637       46.40915
C         88.50247       23.13418       44.99424
H         87.91054       23.88647       44.43329
H         89.56098       23.15988       44.67113
H         88.08575       22.12583       44.77481
H         87.96424       22.66648       46.97232
Ca        94.73833       22.88996       52.60140
O         94.66358       25.14613       49.47806
H         93.88860       25.67034       49.15568
H         95.44636       25.57393       49.04961
O         96.83864       25.07562       52.15346
H         96.62001       24.92365       51.20220
H         97.48511       25.82515       52.14822

Ca 1.0



