%chk=holoCaM.loop2.water2.frame339.chk
%nprocshared=20
%mem=10GB
%nosave
#b3lyp/svp scf=(tight,noincore,xqc) Test 
#IOP(5/87=12) Density=Current Pop=(MK,readradii) iop(6/33=2) iop(6/42=6)

holoCaM.loop2.water2.frame339 

   -2  1 
C          2.07808       35.60590       12.12859
C          1.39226       36.19475       10.92563
O          0.55494       35.53261       10.33543
H          2.80525       36.31962       12.57318
H          1.32018       35.36617       12.90503
H          2.61993       34.68039       11.84786
N          1.68096       37.46207       10.52903
C          0.98998       38.16490        9.45173
C          1.22532       37.54633        8.07449
O          2.36943       37.40927        7.66549
C          1.44739       39.63419        9.45584
C          0.74076       40.44049        8.41686
O          1.38566       41.04503        7.57603
O         -0.60473       40.49361        8.40513
H          2.38848       37.98068       11.07345
H         -0.09882       38.16798        9.68054
H          2.54644       39.69350        9.29363
H          1.21589       40.07844       10.44670
N          0.15821       37.22197        7.28209
C          0.25442       36.70739        5.91886
C         -0.42222       37.61740        4.87775
O         -0.31707       37.30197        3.70056
C         -0.40045       35.31921        5.87657
H         -0.78049       37.35508        7.66414
H          1.32141       36.60322        5.62786
H         -1.47741       35.39129        6.14917
H         -0.32330       34.87202        4.86268
H          0.09692       34.63728        6.59861
N         -1.17130       38.71280        5.21832
C         -1.92274       39.52790        4.24794
C         -1.74414       41.04983        4.42524
O         -2.32034       41.79138        3.64084
C         -3.42003       39.16312        4.33225
C         -3.90129       39.14736        5.74650
O         -3.64623       40.18128        6.55969
O         -4.43311       38.14568        6.19924
H         -1.30998       38.92145        6.21499
H         -1.60287       39.29805        3.20830
H         -3.58072       38.14693        3.90917
H         -4.02344       39.87334        3.72717
N         -0.96118       41.59122        5.39866
C         -0.70127       43.02144        5.55811
C         -1.85463       43.89948        6.04668
O         -1.61413       45.08831        6.20406
H         -0.44370       40.95587        6.00662
H         -0.31813       43.42419        4.59527
H          0.10879       43.13844        6.30990
N         -3.11245       43.43372        6.30177
C         -4.22460       44.30490        6.71040
C         -4.13136       44.83907        8.15690
O         -5.04224       45.54939        8.56004
C         -5.58781       43.60278        6.45164
C         -5.88835       42.44513        7.35594
N         -7.02453       41.72763        7.21248
O         -5.11012       42.15822        8.23891
H         -3.31102       42.44945        6.10933
H         -4.23653       45.17748        6.02101
H         -5.60664       43.24669        5.39865
H         -6.40928       44.33947        6.57967
H         -7.70259       41.95382        6.47186
H         -7.22564       40.94213        7.84811
N         -3.07180       44.57870        8.98297
C         -2.93359       45.16255       10.31787
C         -3.71574       44.47378       11.43126
O         -3.64734       44.96085       12.55094
H         -2.27198       44.04749        8.61929
H         -3.19057       46.24352       10.27253
H         -1.86615       45.10013       10.62163
N         -4.43731       43.33476       11.23039
C         -5.16405       42.62013       12.28299
C         -4.66219       41.18543       12.42367
O         -3.82726       40.74627       11.64650
C         -6.68378       42.59716       11.94782
C         -7.29976       43.99406       11.99003
O         -6.90582       42.04115       10.67573
H         -4.46603       42.93985       10.29008
H         -5.02356       43.11350       13.26985
H         -7.24588       42.01155       12.71070
H         -6.85213       41.05450       10.77161
H         -6.82339       44.66360       11.24474
H         -8.38667       43.92665       11.76580
H         -7.18219       44.42952       13.00549
N         -5.20793       40.37796       13.37775
C         -4.98338       38.94082       13.47557
C         -6.26255       38.27680       13.01083
O         -7.34220       38.64176       13.45694
C         -4.56665       38.51181       14.91210
C         -3.14418       39.05017       15.21494
C         -4.59570       36.97226       15.04706
C         -2.64295       38.74932       16.62919
H         -5.91361       40.78012       14.01355
H         -4.17186       38.61184       12.79180
H         -5.29696       38.93016       15.63888
H         -3.13319       40.15265       15.08186
H         -2.42370       38.60438       14.49452
H         -4.35673       36.65130       16.07883
H         -5.61008       36.57179       14.84171
H         -3.87755       36.50303       14.34237
H         -2.54740       37.65928       16.80911
H         -1.63100       39.18772       16.75910
H         -3.32662       39.19250       17.38205
N         -6.19334       37.28012       12.09171
C         -7.34411       36.67596       11.44252
C         -7.51984       35.26986       11.94890
O         -6.77306       34.84449       12.81655
C         -7.09508       36.62115        9.91814
C         -6.59239       37.90575        9.35986
O         -5.42764       38.38062        9.83010
O         -7.14935       38.44638        8.41864
H         -5.26539       36.93355       11.81387
H         -8.26692       37.26086       11.65022
H         -8.00521       36.29107        9.37297
H         -6.28218       35.88926        9.71652
N         -8.48266       34.46833       11.43244
C         -8.62466       33.07950       11.82942
C         -7.33626       32.28156       11.55248
O         -6.80597       31.75250       12.51935
C         -9.89832       32.48375       11.19484
C         -9.98031       30.99457       11.37995
C         -9.97742       30.42403       12.66315
C        -10.04064       30.15992       10.25189
C        -10.02707       29.03585       12.81131
C        -10.09548       28.77471       10.40468
C        -10.08665       28.21208       11.68324
H         -9.12396       34.85740       10.72383
H         -8.79355       33.04903       12.93027
H         -9.95272       32.72717       10.11985
H        -10.78518       32.97555       11.65062
H         -9.92684       31.05021       13.54507
H        -10.04121       30.58053        9.25324
H        -10.01655       28.59940       13.80096
H        -10.14113       28.13979        9.52988
H        -10.12475       27.13780       11.79885
N         -6.74887       32.14180       10.31834
C         -5.51680       31.38940       10.08321
C         -4.36786       31.76062       11.00052
O         -3.71141       30.88317       11.54315
C         -5.12396       31.78477        8.64821
C         -6.46573       31.96860        7.99923
C         -7.23622       32.72050        9.08029
H         -5.74115       30.30143       10.14565
H         -4.64676       32.79205        8.63139
H         -4.43348       31.07384        8.14647
H         -6.45207       32.46967        7.00780
H         -6.91300       30.95495        7.88619
H         -7.01222       33.80573        9.08075
H         -8.30036       32.53958        8.87618
N         -4.04240       33.06898       11.15179
C         -2.84531       33.55061       11.82890
C         -2.89900       33.18770       13.30029
O         -2.01277       32.49120       13.77418
C         -2.70828       35.07470       11.60835
C         -2.66387       35.42884       10.09775
C         -2.73109       36.89915        9.83336
O         -2.73854       37.79157       10.83716
O         -2.85074       37.29021        8.68590
H         -4.67959       33.75092       10.71862
H         -1.94983       33.07880       11.36414
H         -1.79091       35.45837       12.10716
H         -3.58179       35.56877       12.07000
H         -3.53460       35.01517        9.56006
H         -1.76191       34.99410        9.62121
N         -3.94392       33.59806       14.07004
C         -4.12087       33.23794       15.46131
H         -5.07521       32.67928       15.57002
H         -3.29679       32.60119       15.84315
H         -4.17749       34.15698       16.07908
H         -4.67221       34.17819       13.64268
Ca        -4.28529       39.79190        8.63045
O         -0.88639       39.91638       12.84106
H          0.04921       39.77414       12.55480
H         -1.41436       39.33448       12.24144
O         -1.71179       42.18726       10.23900
H         -1.45640       41.48631       10.88500
H         -0.86050       42.64337       10.02282

Ca 1.0



