%chk=holoCaM.loop1.water2.frame303.chk
%nprocshared=20
%mem=10GB
%nosave
#b3lyp/svp scf=(tight,noincore,xqc) Test 
#IOP(5/87=12) Density=Current Pop=(MK,readradii) iop(6/33=2) iop(6/42=6)

holoCaM.loop1.water2.frame303 

   0  1 
C         29.35406       47.50015       48.05395
C         28.27170       47.63941       47.02483
O         28.16571       46.79627       46.15226
H         30.02837       48.38166       47.99179
H         28.90631       47.46036       49.06904
H         29.95233       46.58129       47.88260
N         27.42241       48.69799       47.09781
C         26.36232       49.03663       46.14313
C         26.99214       49.53586       44.82892
O         27.05471       50.73582       44.59954
C         25.48348       50.11022       46.83838
C         24.40607       50.74549       46.02429
O         24.01336       50.25701       44.84801
O         24.04071       51.86791       46.32870
H         27.55411       49.32046       47.91202
H         25.69954       48.16466       45.94650
H         26.15339       50.94124       47.14645
H         25.02150       49.68900       47.75854
N         27.51703       48.64657       43.93811
C         28.27375       49.00215       42.73819
C         27.44563       49.81910       41.74071
O         27.79688       50.96586       41.50034
C         28.87385       47.70211       42.13010
C         29.95137       47.94146       41.06209
C         30.72165       46.65364       40.69353
C         29.86727       45.58031       39.99975
N         30.68391       44.41607       39.64665
H         27.43115       47.65245       44.16173
H         29.13300       49.62285       43.07869
H         28.06718       47.04576       41.74031
H         29.37670       47.16061       42.96295
H         30.70194       48.64242       41.48809
H         29.50979       48.40817       40.15650
H         31.17711       46.22135       41.61298
H         31.54916       46.93594       40.00742
H         29.42324       46.00817       39.07457
H         29.04417       45.24920       40.66863
H         30.08690       43.70967       39.15871
H         31.46082       44.69828       39.00532
H         31.08419       43.97935       40.50908
N         26.34243       49.30166       41.11915
C         25.52233       50.06005       40.15736
C         24.79212       51.27815       40.75183
O         24.21728       52.03224       39.97723
C         24.49664       49.14573       39.43049
C         23.53508       48.41869       40.33862
O         22.63160       47.75381       39.86271
O         23.71455       48.42641       41.66642
H         26.11538       48.31506       41.30270
H         26.20831       50.45071       39.37085
H         25.03834       48.38029       38.83497
H         23.91309       49.76904       38.71612
N         24.78647       51.56173       42.08456
C         24.20568       52.77536       42.64765
C         22.69209       52.86580       42.55222
O         22.19793       53.82504       41.97849
H         25.27343       50.93188       42.73208
H         24.67398       53.65923       42.15953
H         24.46209       52.82582       43.72651
N         21.89746       51.93290       43.15374
C         20.43785       52.01656       43.23134
C         19.90600       52.04556       44.67372
O         18.70761       52.24884       44.82903
C         19.78896       50.87774       42.40912
C         20.12595       49.46725       42.82968
O         19.63723       48.52991       42.22109
O         20.96601       49.21259       43.84464
H         22.35362       51.12990       43.58065
H         20.10203       52.97045       42.77004
H         20.10651       50.99226       41.35097
H         18.68444       50.99620       42.45012
N         20.70113       51.85153       45.76976
C         20.22896       51.91221       47.14969
C         20.26273       50.56415       47.85804
O         19.96494       50.52391       49.03875
H         21.69589       51.63974       45.63919
H         19.17995       52.27828       47.20829
H         20.86258       52.63901       47.70280
N         20.52683       49.41228       47.17223
C         20.40570       48.06877       47.74093
C         21.59785       47.18175       47.37060
O         22.47706       47.58988       46.63370
C         19.07190       47.42594       47.23894
C         17.87747       47.97676       48.01457
O         18.83438       47.66069       45.87308
H         20.70743       49.47587       46.17128
H         20.38788       48.10659       48.85183
H         19.06907       46.33056       47.42483
H         19.69097       47.58859       45.39314
H         17.78564       49.07454       47.88615
H         16.94575       47.49573       47.64632
H         17.98556       47.73759       49.09411
N         21.66483       45.92427       47.91405
C         22.72505       44.94284       47.68017
C         22.09245       43.62634       47.19159
O         21.19622       43.11089       47.83927
C         23.54467       44.78404       49.00398
C         24.38400       46.08023       49.22094
C         24.45904       43.54432       48.98086
C         25.20035       46.11873       50.51385
H         20.92981       45.65163       48.58033
H         23.43957       45.28827       46.90354
H         22.83660       44.64297       49.85085
H         23.70730       46.96014       49.24009
H         25.08899       46.21037       48.36833
H         24.98377       43.42034       49.94945
H         23.85951       42.62087       48.84951
H         25.20952       43.61604       48.17140
H         25.74013       47.08872       50.57230
H         24.53301       46.02844       51.39537
H         25.96765       45.31901       50.53855
N         22.57804       43.00819       46.06817
C         22.12023       41.71640       45.54076
C         23.04251       40.60576       46.02873
O         23.93167       40.88192       46.80926
C         22.13631       41.72987       43.98072
C         21.23783       42.80000       43.38125
O         23.45179       41.91799       43.51965
H         23.39640       43.42068       45.61728
H         21.09225       41.48954       45.89759
H         21.75015       40.75307       43.61656
H         23.48793       41.58717       42.58428
H         20.19620       42.69784       43.75074
H         21.64945       43.78493       43.63694
H         21.23577       42.71203       42.27357
N         22.89551       39.31860       45.59729
C         23.81004       38.23479       45.96468
C         25.23902       38.52119       45.50890
O         26.13671       38.47006       46.33783
C         23.33675       36.87176       45.39233
C         22.02489       36.40333       46.04795
O         23.24200       36.89871       43.98544
H         22.10937       39.10337       44.97089
H         23.82142       38.12777       47.07322
H         24.09393       36.10186       45.65851
H         22.31284       37.13199       43.72451
H         22.16396       36.31054       47.14641
H         21.19604       37.11591       45.85556
H         21.73985       35.40828       45.64654
N         25.52305       38.83529       44.21181
C         26.87656       39.10960       43.71749
C         27.54364       40.21574       44.51187
O         28.65191       40.01937       44.99114
C         26.83953       39.50091       42.22057
C         26.53251       38.28867       41.32646
C         26.46913       38.68199       39.84238
C         26.41364       37.46415       38.90070
N         25.24449       36.61470       39.13195
H         24.73370       38.91030       43.55246
H         27.51238       38.20161       43.81954
H         27.84184       39.87889       41.91667
H         26.10181       40.31924       42.06008
H         25.57042       37.82396       41.62497
H         27.35001       37.54808       41.46978
H         27.38561       39.25241       39.57512
H         25.58934       39.34069       39.67162
H         27.33923       36.85872       39.02458
H         26.39023       37.83582       37.85210
H         24.36552       37.17145       39.03214
H         25.24262       35.84613       38.42264
H         25.28920       36.17582       40.07903
N         26.91322       41.40092       44.70260
C         27.49193       42.52085       45.44299
C         27.86985       42.09826       46.85915
O         28.97546       42.39420       47.28933
C         26.51828       43.72204       45.43226
C         26.27089       44.20631       43.98353
C         25.33780       45.37270       43.88104
O         24.08256       45.29756       44.35092
O         25.68766       46.37198       43.28257
H         25.96213       41.48793       44.31865
H         28.42117       42.86438       44.93562
H         26.95356       44.55287       46.02533
H         25.56688       43.42295       45.90795
H         25.81995       43.40279       43.37295
H         27.24505       44.48136       43.52201
N         27.02918       41.32969       47.60239
C         27.33368       40.81422       48.92160
H         28.31702       41.16275       49.29749
H         26.54327       41.13148       49.63331
H         27.34561       39.70288       48.88398
H         26.14131       41.04740       47.19130
Ca        23.77783       48.28201       43.88648
O         22.50413       45.47779       41.70417
H         21.98442       46.26408       42.00699
H         21.88157       44.98572       41.11269
O         20.88482       45.89436       44.33398
H         21.42517       45.57456       45.09748
H         20.01881       45.42426       44.43512

Ca 1.0



