%chk=holoCaM-CaMKII.loop3.water2.frame299.chk
%nprocshared=20
%mem=10GB
%nosave
#b3lyp/svp scf=(tight,noincore,xqc) Test 
#IOP(5/87=12) Density=Current Pop=(MK,readradii) iop(6/33=2) iop(6/42=6)

holoCaM-CaMKII.loop3.water2.frame299 

   0  1 
C         48.45100       27.23375       85.32448
C         47.63352       27.79279       86.44608
O         48.20035       28.45374       87.30394
H         49.23852       26.56908       85.73492
H         47.82391       26.66087       84.61111
H         48.93223       28.07356       84.77818
N         46.28246       27.61329       86.48972
C         45.47192       28.24528       87.51782
C         45.72927       27.59776       88.87143
O         45.50552       26.40215       89.00561
C         43.96990       28.20082       87.15784
C         43.20095       29.23032       87.94571
O         43.86108       30.03290       88.80700
O         42.01767       29.41378       87.71870
H         45.82055       27.09045       85.72948
H         45.76255       29.32084       87.51553
H         43.55139       27.17763       87.28392
H         43.85336       28.49327       86.09111
N         46.20547       28.33097       89.91757
C         46.60244       27.74418       91.19423
C         45.52212       27.81909       92.26729
O         45.71930       27.18109       93.29234
C         47.89280       28.41237       91.72066
C         49.06469       28.29628       90.73331
C         50.35329       28.97142       91.23863
C         50.92768       28.39478       92.54777
N         51.25136       26.97148       92.43571
H         46.38336       29.32625       89.76096
H         46.81121       26.66185       91.03912
H         48.17219       27.92214       92.67627
H         47.69314       29.48902       91.92283
H         48.78740       28.79880       89.78441
H         49.25903       27.22778       90.50516
H         50.15802       30.05574       91.38960
H         51.12505       28.87671       90.44400
H         50.22129       28.55304       93.39025
H         51.85597       28.95762       92.79114
H         51.70799       26.65659       93.32190
H         50.38301       26.40631       92.30125
H         51.91050       26.81147       91.63981
N         44.37703       28.55766       92.13630
C         43.32996       28.57258       93.16649
C         41.98139       28.09044       92.63630
O         41.04128       28.02097       93.41698
C         43.23221       29.96703       93.82705
C         42.69956       31.07115       92.95628
O         42.61111       32.31886       93.45418
O         42.30961       30.85007       91.82383
H         44.24796       29.13741       91.29575
H         43.60126       27.87586       93.98872
H         44.24412       30.25010       94.19022
H         42.56253       29.89966       94.71198
N         41.81054       27.71673       91.33569
C         40.56328       27.19872       90.80710
C         39.44746       28.21567       90.80253
O         38.38772       27.93246       91.34225
H         42.60208       27.75052       90.67858
H         40.26602       26.28855       91.37278
H         40.72807       26.89817       89.74920
N         39.60020       29.39934       90.14520
C         38.51140       30.34524       89.91463
C         38.25121       30.50917       88.40955
O         37.46618       31.37197       88.04280
C         38.77472       31.68715       90.64978
C         39.93414       32.51338       90.16256
N         40.22895       33.69079       90.76035
O         40.60650       32.13674       89.22374
H         40.52147       29.61462       89.73923
H         37.56525       29.96661       90.35954
H         38.93252       31.46641       91.72831
H         37.86474       32.31993       90.56324
H         39.67057       34.03265       91.55581
H         41.01797       34.26415       90.42639
N         38.82174       29.67128       87.48319
C         38.57270       29.75310       86.04731
C         39.31254       30.88169       85.34255
O         39.11797       31.04106       84.14668
H         39.39814       28.87939       87.79928
H         37.47716       29.82769       85.87267
H         38.92155       28.81139       85.57088
N         40.17667       31.69481       86.00839
C         40.88565       32.83084       85.42748
C         42.38320       32.72476       85.68536
O         42.78413       32.34005       86.77274
C         40.32464       34.11475       86.06879
C         38.92724       34.38695       85.56113
C         38.74287       34.77704       84.22244
C         37.80605       34.25833       86.39646
C         37.46325       35.03357       83.72693
C         36.52164       34.50294       85.89370
C         36.34779       34.89386       84.55656
O         35.11879       35.13775       84.05816
H         40.31804       31.53300       87.00685
H         40.73147       32.90176       84.32867
H         40.95042       34.99810       85.81514
H         40.33994       33.99785       87.17483
H         39.59454       34.89218       83.56315
H         37.92293       33.95608       87.42898
H         37.34011       35.34020       82.69548
H         35.66254       34.38870       86.54247
H         34.31766       35.05047       84.59359
N         43.26811       33.15037       84.73691
C         44.72273       33.14928       84.89649
C         45.20179       34.58720       85.04373
O         44.79588       35.44571       84.27303
C         45.40118       32.43446       83.68989
C         44.96546       30.94549       83.64783
C         46.94049       32.55368       83.77803
C         45.49397       30.17970       82.43212
H         42.89088       33.54623       83.86187
H         45.02348       32.59795       85.81596
H         45.07294       32.93731       82.75270
H         43.85678       30.89044       83.60663
H         45.30220       30.42734       84.57348
H         47.43442       32.10192       82.89591
H         47.25645       33.61722       83.77984
H         47.32267       32.06694       84.70074
H         45.15406       30.66700       81.49390
H         46.60046       30.11498       82.43520
H         45.10443       29.14032       82.45473
N         46.11069       34.89612       86.01421
C         46.60061       36.24012       86.29984
C         48.07859       36.37837       85.95242
O         48.68165       35.43105       85.47043
C         46.34994       36.54203       87.78900
O         47.08376       35.65508       88.59072
H         46.48855       34.12908       86.58338
H         46.04918       36.99062       85.69310
H         45.26000       36.43172       87.98658
H         46.64384       37.58215       88.03978
H         46.64728       35.64518       89.48153
N         48.71631       37.56787       86.15700
C         50.11555       37.82151       85.81852
C         51.06083       36.90791       86.57332
O         51.87001       36.24413       85.94136
C         50.47402       39.28099       86.12721
H         48.16764       38.34599       86.55284
H         50.25693       37.67169       84.72467
H         50.34473       39.50373       87.20819
H         51.52891       39.48460       85.84380
H         49.81793       39.96267       85.54565
N         51.02201       36.83547       87.93253
C         51.90643       35.98021       88.71819
C         51.74563       34.52230       88.33409
O         52.74272       33.86079       88.07994
C         51.61060       36.14777       90.21378
H         50.32257       37.40975       88.42871
H         52.96408       36.28963       88.55880
H         52.30312       35.51785       90.81330
H         51.76155       37.20728       90.51213
H         50.56498       35.85542       90.44962
N         50.50535       33.96137       88.26324
C         50.27617       32.54884       87.95361
C         50.84599       32.16180       86.59392
O         51.11679       30.98685       86.38685
C         48.76663       32.20965       88.00303
C         48.15369       32.48747       89.39250
C         46.66553       32.29959       89.42426
O         46.10691       31.52924       90.37218
O         45.94652       32.91753       88.65757
H         49.70090       34.57838       88.44025
H         50.80297       31.94588       88.72713
H         48.60581       31.14033       87.74509
H         48.25672       32.82904       87.23505
H         48.32914       33.53507       89.69447
H         48.63256       31.83097       90.15013
N         51.06049       33.09034       85.62087
C         51.66175       32.76404       84.34697
H         52.69240       32.38101       84.50636
H         51.05458       32.00141       83.81685
H         51.72236       33.67678       83.71509
H         50.78890       34.06580       85.78149
Ca        43.23174       32.04205       89.58972
O         44.48209       33.95465       91.45826
H         44.84576       34.86669       91.33463
H         44.95718       33.59972       92.25075
O         43.11269       34.90771       88.53297
H         42.26535       35.22440       88.13264
H         43.16929       35.38619       89.39756

Ca 1.0



