%chk=holoCaM-CaMKII.loop2.water2.frame327.chk
%nprocshared=20
%mem=10GB
%nosave
#b3lyp/svp scf=(tight,noincore,xqc) Test 
#IOP(5/87=12) Density=Current Pop=(MK,readradii) iop(6/33=2) iop(6/42=6)

holoCaM-CaMKII.loop2.water2.frame327 

   -2  1 
C         40.27588       46.80301       49.61210
C         39.67128       45.81915       48.64730
O         40.13677       44.69547       48.57501
H         41.33873       46.98876       49.35850
H         39.73355       47.77337       49.59702
H         40.20991       46.39575       50.64397
N         38.60199       46.17754       47.89077
C         37.85263       45.27125       47.02464
C         38.66132       44.68211       45.86822
O         39.32282       45.41999       45.15261
C         36.63730       46.02566       46.46501
C         35.79029       45.11830       45.64362
O         35.32605       43.97955       46.18784
O         35.55556       45.38730       44.47699
H         38.25572       47.14480       47.99137
H         37.45921       44.44048       47.65317
H         36.96831       46.89498       45.85600
H         36.01947       46.39942       47.30853
N         38.55493       43.34541       45.58853
C         39.21232       42.66137       44.47751
C         38.23275       41.92579       43.54590
O         38.71604       41.31195       42.60319
C         40.20460       41.63883       45.04800
H         37.95908       42.77757       46.19824
H         39.79200       43.38832       43.86858
H         39.67313       40.85185       45.62172
H         40.77042       41.14272       44.23010
H         40.93349       42.14120       45.71782
N         36.87135       41.91803       43.72276
C         35.97821       41.10794       42.87519
C         34.49740       41.53638       42.82961
O         33.74338       40.88341       42.12031
C         36.09793       39.61411       43.26293
C         35.66191       39.30306       44.67453
O         35.23799       40.27105       45.51058
O         35.69917       38.14963       45.07081
H         36.48318       42.44646       44.50688
H         36.31355       41.21464       41.81865
H         37.15106       39.28322       43.14436
H         35.48194       39.00836       42.56225
N         34.01164       42.63790       43.46866
C         32.65409       43.13469       43.29942
C         31.55853       42.32500       43.96580
O         30.40769       42.69490       43.77636
H         34.64071       43.22807       44.00285
H         32.44484       43.22684       42.21140
H         32.59176       44.15708       43.73368
N         31.79598       41.24354       44.76711
C         30.70578       40.48074       45.38353
C         29.92336       41.23498       46.48405
O         29.02974       40.63354       47.06411
C         31.19256       39.10681       45.90443
C         32.07553       39.10744       47.12176
N         32.28552       37.93890       47.76992
O         32.56690       40.13960       47.54969
H         32.76421       40.92065       44.89910
H         29.98793       40.21751       44.57466
H         31.69613       38.53566       45.09392
H         30.27878       38.53882       46.18389
H         31.86923       37.06284       47.42434
H         32.81859       37.90394       48.64418
N         30.16438       42.54130       46.80716
C         29.40764       43.29506       47.80346
C         29.84304       43.07256       49.24628
O         29.29472       43.73561       50.11549
H         30.84696       43.07405       46.26480
H         28.31845       43.10765       47.67546
H         29.57526       44.37590       47.60778
N         30.80558       42.17124       49.58578
C         31.26899       41.91251       50.95107
C         32.80026       41.95790       51.02366
O         33.44238       42.25438       50.02626
C         30.71962       40.52959       51.40102
C         29.20673       40.59764       51.63127
O         30.99558       39.53824       50.44566
H         31.20876       41.59172       48.84434
H         30.88851       42.67406       51.66829
H         31.13807       40.22376       52.38301
H         31.97691       39.39764       50.45185
H         28.83106       39.61010       51.97253
H         28.98027       41.34296       52.42601
H         28.66618       40.88482       50.70617
N         33.44875       41.62421       52.18049
C         34.90063       41.52363       52.32716
C         35.28126       40.05173       52.37216
O         34.69436       39.29873       53.13823
C         35.38985       42.27684       53.61012
C         35.18735       43.80437       53.43344
C         36.87059       41.95085       53.91816
C         35.66025       44.64911       54.62203
H         32.88605       41.34628       52.99780
H         35.42707       41.97144       51.45639
H         34.79757       41.92523       54.48490
H         34.10670       44.00756       53.27655
H         35.74208       44.15123       52.53633
H         37.00450       40.86457       54.09367
H         37.53201       42.27173       53.08728
H         37.20479       42.42612       54.86131
H         35.44086       45.71911       54.42401
H         35.14430       44.34048       55.55457
H         36.75865       44.57211       54.76243
N         36.33536       39.60332       51.62673
C         36.84600       38.24121       51.66908
C         38.14619       38.20672       52.46442
O         38.63684       39.25115       52.87225
C         37.05635       37.68582       50.23895
C         35.77061       37.46438       49.48069
O         35.00356       38.48090       49.03809
O         35.42542       36.32231       49.22253
H         36.87364       40.28510       51.07648
H         36.13899       37.58025       52.21673
H         37.54530       36.69305       50.33229
H         37.73950       38.33944       49.65171
N         38.72373       37.01266       52.78657
C         39.89691       36.89762       53.64842
C         41.13233       37.56250       53.05580
O         41.81628       38.23416       53.81169
C         40.18841       35.43128       54.02489
C         41.25735       35.33427       55.09213
C         41.03448       35.87196       56.37507
C         42.48290       34.70456       54.81955
C         42.01951       35.77964       57.36214
C         43.46669       34.61707       55.81023
C         43.23494       35.15274       57.08010
H         38.26826       36.14578       52.46183
H         39.64676       37.41516       54.60176
H         40.48474       34.86271       53.12282
H         39.26554       34.96002       54.42669
H         40.09748       36.35826       56.61604
H         42.67959       34.28645       53.84064
H         41.83940       36.19309       58.34654
H         44.40971       34.13293       55.59357
H         43.99638       35.08149       57.84602
N         41.50626       37.44401       51.74102
C         42.61074       38.19340       51.15283
C         42.48439       39.68584       51.42310
O         43.43980       40.31572       51.85384
C         42.46179       37.92725       49.64103
C         41.86851       36.54015       49.62405
C         40.83532       36.63921       50.74043
H         43.57403       37.78457       51.53019
H         41.67877       38.58521       49.19937
H         43.39216       38.06589       49.05032
H         41.45839       36.20801       48.64614
H         42.66496       35.82959       49.94219
H         39.92471       37.17576       50.40147
H         40.58895       35.61364       51.07245
N         41.29735       40.30345       51.17307
C         41.05833       41.74133       51.29354
C         41.01164       42.20891       52.74511
O         40.98398       43.41020       52.97278
C         39.71398       42.07890       50.61751
C         39.69648       41.64882       49.13178
C         38.31048       41.57684       48.58571
O         38.10769       40.90013       47.59102
O         37.25938       42.01779       49.29236
H         40.52770       39.70173       50.84489
H         41.86905       42.27849       50.75376
H         39.46826       43.16022       50.69681
H         38.93423       41.50987       51.17091
H         40.06480       40.61279       49.02957
H         40.36425       42.26386       48.49864
N         40.95564       41.32377       53.77712
C         40.90590       41.72173       55.16522
H         41.82330       42.28696       55.43019
H         40.00578       42.34296       55.35308
H         40.85108       40.81662       55.81021
H         40.91876       40.32488       53.57977
Ca        35.56487       40.63640       48.93015
O         32.94827       43.70790       47.44350
H         32.90488       43.88026       46.46898
H         32.53229       44.50796       47.84969
O         35.38368       44.44273       49.51571
H         35.50214       45.42355       49.46799
H         36.05180       44.15000       50.18370

Ca 1.0



