%chk=holoCaM-CaMKII.loop1.water2.frame227.chk
%nprocshared=20
%mem=10GB
%nosave
#b3lyp/svp scf=(tight,noincore,xqc) Test 
#IOP(5/87=12) Density=Current Pop=(MK,readradii) iop(6/33=2) iop(6/42=6)

holoCaM-CaMKII.loop1.water2.frame227 

   0  1 
C         43.46430       38.23039       50.37279
C         42.14038       37.79366       50.91879
O         41.98317       36.63326       51.26352
H         44.18375       37.38503       50.35704
H         43.32598       38.60323       49.33557
H         43.87545       39.04726       51.00202
N         41.12917       38.69385       51.02686
C         39.79842       38.35015       51.51216
C         39.15561       37.37131       50.53264
O         39.10089       37.68314       49.35081
C         38.97586       39.64830       51.64784
C         37.67673       39.48910       52.37552
O         37.31333       38.31228       52.91751
O         36.96084       40.46486       52.51877
H         41.32391       39.66939       50.74928
H         39.89466       37.90648       52.52965
H         38.79104       40.07946       50.64032
H         39.56537       40.38306       52.24028
N         38.66862       36.16511       50.94754
C         38.16454       35.13788       50.03759
C         36.65823       35.04456       50.16659
O         35.95821       35.38360       49.22242
C         38.84015       33.76568       50.31405
C         40.37923       33.79957       50.37360
C         41.06260       34.41269       49.14628
C         40.74970       33.66713       47.84489
N         41.40537       34.32147       46.71490
H         38.64970       35.97537       51.95008
H         38.38691       35.42923       48.98832
H         38.49987       33.03932       49.54594
H         38.52327       33.36062       51.29742
H         40.75076       32.76237       50.52861
H         40.68345       34.38919       51.26448
H         42.16116       34.39735       49.31848
H         40.75493       35.47305       49.04758
H         39.65434       33.66161       47.66095
H         41.10015       32.61430       47.92561
H         42.44200       34.32615       46.85230
H         41.17656       33.80121       45.83801
H         41.05772       35.30453       46.62476
N         36.08693       34.63311       51.33233
C         34.64568       34.65573       51.58130
C         34.05246       36.07507       51.57713
O         32.83657       36.18734       51.65514
C         34.29875       33.95551       52.91935
C         34.94147       34.59459       54.12487
O         34.46004       34.42071       55.23239
O         36.09245       35.28479       54.00415
H         36.71452       34.28160       52.06398
H         34.14991       34.07740       50.76979
H         34.57494       32.88010       52.89408
H         33.19358       33.99857       53.04552
N         34.82285       37.19686       51.45863
C         34.26827       38.53335       51.30777
C         33.61185       39.14342       52.53622
O         33.09056       40.23958       52.38222
H         35.84099       37.11066       51.37015
H         33.53839       38.51460       50.46928
H         35.08385       39.22601       51.00823
N         33.59166       38.55682       53.77457
C         32.91691       39.19900       54.91567
C         33.52270       40.55157       55.30532
O         32.88348       41.27489       56.05583
C         32.81085       38.25052       56.13438
C         34.12891       37.84149       56.72966
O         35.27382       38.37279       56.27847
O         34.16714       36.94700       57.55879
H         34.02532       37.63048       53.89896
H         31.87187       39.39536       54.58636
H         32.29794       37.32868       55.78179
H         32.18653       38.70642       56.93172
N         34.72570       40.96921       54.81434
C         35.26279       42.30963       54.99653
C         36.61421       42.34649       55.67644
O         37.23202       43.40212       55.63948
H         35.27537       40.32859       54.23186
H         34.56973       42.97594       55.55383
H         35.38582       42.73961       53.97916
N         37.12162       41.28155       56.36327
C         38.41041       41.31623       57.05309
C         39.28870       40.14049       56.63644
O         38.86262       39.30638       55.84748
C         38.18842       41.36188       58.58524
C         37.43358       42.63299       58.99726
O         37.47255       40.23101       59.00455
H         36.55277       40.43163       56.45804
H         38.97223       42.23741       56.77954
H         39.18314       41.38819       59.08557
H         37.62720       40.13931       59.98119
H         37.32824       42.66959       60.10184
H         37.99385       43.53577       58.67104
H         36.41840       42.65653       58.54822
N         40.56356       40.04945       57.11264
C         41.53077       39.02620       56.72406
C         41.98252       38.27073       57.97337
O         42.32764       38.90511       58.96153
C         42.71454       39.71069       55.97629
C         42.17664       40.44820       54.71423
C         43.78555       38.67231       55.58247
C         43.22405       41.28515       53.97931
H         40.89896       40.78426       57.75475
H         41.08430       38.30233       56.00982
H         43.17906       40.45688       56.65899
H         41.37668       41.15857       55.01137
H         41.73378       39.71312       54.00562
H         44.18259       38.15441       56.47923
H         43.35954       37.91361       54.89108
H         44.65376       39.15602       55.09273
H         42.73948       41.80562       53.12545
H         43.64774       42.05117       54.66293
H         44.03978       40.65866       53.56871
N         42.03835       36.90547       57.97816
C         42.42074       36.09518       59.13832
C         43.77510       35.44796       58.91453
O         44.34100       35.60885       57.84738
C         41.35745       34.98708       59.39233
C         39.97242       35.55407       59.71179
O         41.28930       34.09181       58.30622
H         41.83903       36.41263       57.09849
H         42.51104       36.73419       60.04361
H         41.65619       34.39268       60.28117
H         40.71657       34.48856       57.60067
H         39.60695       36.15490       58.85835
H         39.25974       34.71920       59.88777
H         40.01472       36.18949       60.61983
N         44.36540       34.69481       59.88811
C         45.62022       33.97115       59.66691
C         45.44581       32.86482       58.63509
O         46.43432       32.42825       58.06209
C         46.15268       33.33852       60.97537
C         46.57074       34.41371       61.98472
O         45.16643       32.50130       61.52809
H         43.89719       34.62378       60.80409
H         46.38024       34.69033       59.28590
H         47.05761       32.73464       60.73045
H         45.57774       32.03022       62.29868
H         46.97689       33.93176       62.89923
H         47.36926       35.04980       61.54670
H         45.71211       35.05406       62.27211
N         44.22295       32.31084       58.40843
C         43.99313       31.22927       57.45887
C         44.22128       31.75358       56.05636
O         44.99631       31.19033       55.29715
C         42.53869       30.69277       57.56791
C         42.17906       30.22228       58.99046
C         40.76051       29.64000       59.05205
C         40.28795       29.38106       60.49517
N         41.14791       28.44157       61.21607
H         43.42420       32.66780       58.94543
H         44.67320       30.37768       57.68536
H         42.42740       29.84000       56.86151
H         41.80996       31.47911       57.27332
H         42.21392       31.08176       59.68886
H         42.91394       29.46024       59.32445
H         40.71864       28.70218       58.45658
H         40.04700       30.36782       58.60615
H         39.25391       28.97292       60.45505
H         40.25000       30.34481       61.05132
H         40.73175       28.25933       62.15787
H         41.21826       27.53921       60.69341
H         42.09867       28.85036       61.36097
N         43.53794       32.86218       55.66915
C         43.58308       33.46941       54.34620
C         44.98792       33.96444       54.05120
O         45.57239       33.54684       53.06132
C         42.52075       34.60004       54.27506
C         41.10552       34.00870       54.50560
C         40.01317       35.02794       54.57655
O         40.05972       36.02985       55.47025
O         39.01259       34.87941       53.90315
H         42.94067       33.30115       56.38282
H         43.30015       32.71312       53.57966
H         42.55632       35.09490       53.28266
H         42.74281       35.36317       55.05328
H         41.05122       33.47073       55.46754
H         40.87864       33.27061       53.70543
N         45.61125       34.82180       54.90163
C         46.97382       35.26852       54.71475
H         47.65991       34.39461       54.69032
H         47.06231       35.84411       53.77089
H         47.27435       35.92127       55.56351
H         45.11023       35.14668       55.73103
Ca        36.65732       36.88858       55.41707
O         37.41202       37.22688       58.13159
H         36.90869       37.10962       58.97508
H         38.12600       37.87598       58.34951
O         37.29160       34.09610       56.96192
H         37.42010       33.50011       57.74184
H         36.45983       34.59282       57.16626

Ca 1.0



