%chk=holoCaM.loop2.water2.frame344.chk
%nprocshared=20
%mem=10GB
%nosave
#b3lyp/svp scf=(tight,noincore,xqc) Test 
#IOP(5/87=12) Density=Current Pop=(MK,readradii) iop(6/33=2) iop(6/42=6)

holoCaM.loop2.water2.frame344 

   -2  1 
C          0.69664       29.55188      106.48551
C         -0.76583       29.39447      106.79081
O         -1.46467       28.68375      106.08393
H          0.98932       28.96333      105.59160
H          0.92672       30.62368      106.30475
H          1.29444       29.20282      107.35524
N         -1.28797       30.04193      107.86437
C         -2.68067       29.94652      108.29303
C         -3.60959       30.50466      107.21098
O         -3.45708       31.65913      106.83724
C         -2.81261       30.73835      109.61670
C         -4.12107       30.65958      110.33736
O         -4.34815       31.45823      111.23000
O         -5.07483       29.77906      110.02321
H         -0.63779       30.61857      108.42288
H         -2.91571       28.88107      108.49308
H         -2.62745       31.80728      109.37497
H         -2.03671       30.41107      110.34101
N         -4.58795       29.72707      106.66076
C         -5.49864       30.16244      105.59898
C         -6.96812       30.14677      106.03702
O         -7.81896       30.48592      105.22546
C         -5.31409       29.23047      104.39115
H         -4.68551       28.76580      107.00561
H         -5.25651       31.19812      105.27666
H         -5.57642       28.18415      104.66289
H         -5.95960       29.54400      103.54264
H         -4.25758       29.24863      104.04855
N         -7.34249       29.73080      107.28253
C         -8.73109       29.57778      107.72486
C         -8.97603       30.07391      109.15777
O        -10.10767       29.97509      109.61251
C         -9.18526       28.09770      107.55540
C         -8.32176       27.02627      108.18734
O         -7.13103       27.32063      108.71695
O         -8.64901       25.85561      108.10067
H         -6.60658       29.41801      107.91836
H         -9.40648       30.17737      107.07310
H         -9.20954       27.87035      106.46712
H        -10.22475       27.99804      107.93543
N         -7.99391       30.62958      109.92606
C         -8.19196       31.12079      111.28409
C         -8.56081       30.07696      112.33202
O         -8.76861       30.48580      113.46613
H         -7.07089       30.78907      109.51832
H         -8.98760       31.89628      111.26399
H         -7.25374       31.61043      111.62666
N         -8.69916       28.74350      112.06236
C         -9.19978       27.79979      113.06785
C         -8.28082       27.58872      114.27575
O         -8.74549       27.01233      115.24985
C         -9.57548       26.43988      112.43190
C         -8.44126       25.69167      111.77032
N         -8.66179       24.45712      111.26741
O         -7.32992       26.18756      111.67550
H         -8.53501       28.40503      111.10527
H        -10.14919       28.22953      113.45957
H        -10.36274       26.60412      111.66478
H        -10.00660       25.79148      113.22551
H         -9.59198       24.01946      111.33271
H         -7.89782       23.93206      110.82290
N         -6.97550       27.98002      114.28172
C         -6.08161       27.81308      115.42493
C         -5.00863       26.75888      115.19950
O         -4.10822       26.66618      116.02135
H         -6.58459       28.40243      113.43270
H         -6.63253       27.51847      116.34531
H         -5.60909       28.79720      115.62984
N         -5.09053       25.86852      114.16875
C         -4.17509       24.75049      113.96146
C         -3.70459       24.67644      112.51374
O         -4.53300       24.69862      111.61538
C         -4.89780       23.42504      114.31181
C         -5.19337       23.32218      115.80974
O         -6.10669       23.30459      113.60225
H         -5.90411       25.91570      113.54921
H         -3.28786       24.81547      114.63040
H         -4.22131       22.56763      114.07714
H         -5.91013       22.81957      112.75945
H         -5.86819       24.13825      116.14200
H         -5.68013       22.34820      116.02878
H         -4.24680       23.37531      116.39017
N         -2.38717       24.46314      112.22387
C         -1.90197       24.14225      110.87663
C         -2.60380       22.88270      110.37856
O         -2.62446       21.88815      111.09080
C         -0.34736       23.93921      110.86844
C          0.36634       25.28334      111.17833
C          0.13596       23.38133      109.50878
C          1.89018       25.18033      111.28080
H         -1.71781       24.43675      113.00776
H         -2.12794       24.97675      110.17978
H         -0.08361       23.19034      111.64839
H          0.00290       25.68461      112.14665
H          0.12563       26.02112      110.38445
H          1.22505       23.18443      109.51125
H         -0.32842       22.39787      109.29787
H         -0.10822       24.08214      108.68296
H          2.30702       26.17695      111.53772
H          2.17611       24.45732      112.07264
H          2.34833       24.87846      110.31760
N         -3.13062       22.84644      109.11899
C         -3.76483       21.66834      108.53442
C         -2.82970       21.01679      107.52535
O         -1.74095       21.52086      107.29948
C         -5.09403       22.06177      107.85117
C         -6.07488       22.69226      108.79484
O         -5.81828       23.75885      109.32793
O         -7.26414       22.10261      109.02198
H         -3.01687       23.67181      108.51626
H         -3.96677       20.90817      109.32084
H         -5.56883       21.15667      107.41817
H         -4.89630       22.77510      107.02057
N         -3.18623       19.85552      106.90488
C         -2.32445       19.13838      105.96700
C         -1.93070       19.99276      104.75992
O         -0.73182       20.13749      104.56764
C         -2.95874       17.77884      105.58468
C         -2.25555       17.10285      104.43038
C         -0.88397       16.79920      104.48567
C         -2.98193       16.78462      103.26879
C         -0.25315       16.19587      103.39218
C         -2.34953       16.17601      102.18325
C         -0.98553       15.88392      102.24305
H         -4.10196       19.44369      107.13906
H         -1.37612       18.88317      106.49368
H         -4.02709       17.90534      105.33546
H         -2.93969       17.11903      106.47907
H         -0.30140       17.03827      105.36597
H         -4.03956       17.00829      103.20057
H          0.80464       15.97184      103.43385
H         -2.91851       15.93444      101.29475
H         -0.49713       15.41677      101.39801
N         -2.81218       20.58524      103.89439
C         -2.39595       21.43944      102.78546
C         -1.44761       22.54741      103.21354
O         -0.42367       22.75117      102.57739
C         -3.71332       22.06069      102.29543
C         -4.69664       20.95424      102.57261
C         -4.25620       20.48557      103.95674
H         -1.94180       20.80567      101.99039
H         -4.01749       22.90474      102.95574
H         -3.68377       22.43205      101.24865
H         -5.76852       21.23392      102.49710
H         -4.48741       20.13808      101.84201
H         -4.62646       21.14251      104.77387
H         -4.63711       19.45940      104.06916
N         -1.75396       23.30497      104.30213
C         -0.97557       24.45651      104.75285
C          0.43585       24.07747      105.17582
O          1.30130       24.94148      105.16028
C         -1.67121       25.13025      105.95351
C         -3.10656       25.60089      105.63994
C         -3.81466       26.10220      106.86130
O         -3.18157       26.19089      108.04642
O         -4.99632       26.39474      106.78701
H         -2.60318       23.04374      104.82103
H         -0.91877       25.18709      103.91511
H         -1.07227       26.00119      106.29939
H         -1.70760       24.38535      106.77612
H         -3.72398       24.76383      105.26442
H         -3.09083       26.39305      104.86100
N          0.72281       22.82597      105.63035
C          2.02986       22.40604      106.08901
H          2.78499       23.21555      106.01917
H          1.95660       22.08034      107.14829
H          2.37210       21.54580      105.47632
H         -0.02432       22.12896      105.67737
Ca        -5.11566       27.59607      109.60894
O         -2.13789       27.56112      110.72411
H         -1.55598       27.57661      109.92482
H         -1.53295       27.76748      111.47960
O         -4.27413       28.02018      112.40408
H         -4.66324       28.92772      112.42532
H         -3.55645       28.04949      113.08370

Ca 1.0



