%chk=holoCaM-CaMKII.loop1.water2.frame378.chk
%nprocshared=20
%mem=10GB
%nosave
#b3lyp/svp scf=(tight,noincore,xqc) Test 
#IOP(5/87=12) Density=Current Pop=(MK,readradii) iop(6/33=2) iop(6/42=6)

holoCaM-CaMKII.loop1.water2.frame378 

   0  1 
C         76.17713       69.21085       69.37303
C         76.38383       69.20628       70.85537
O         76.00054       70.15601       71.52248
H         75.66007       70.13790       69.04883
H         77.16228       69.14847       68.86396
H         75.56242       68.33219       69.08531
N         76.99568       68.14350       71.44117
C         77.24069       68.05123       72.87429
C         78.16166       69.19042       73.28908
O         79.25412       69.28657       72.74584
C         77.84835       66.66728       73.17525
C         77.95718       66.33283       74.62603
O         77.50921       67.16813       75.57899
O         78.43125       65.25771       74.94145
H         77.29216       67.36457       70.83104
H         76.26252       68.12101       73.40133
H         78.85206       66.59111       72.70359
H         77.19285       65.88677       72.72915
N         77.76314       70.12061       74.20637
C         78.50337       71.35444       74.46913
C         79.28621       71.32572       75.77658
O         80.12424       72.19812       75.95047
C         77.53089       72.54922       74.31750
C         78.18024       73.93757       74.45797
C         77.29257       75.06438       73.89417
C         75.91596       75.20413       74.56393
N         75.13761       76.26056       73.91336
H         76.85877       69.98564       74.67362
H         79.28619       71.46800       73.68729
H         76.70020       72.46039       75.05182
H         77.09950       72.46888       73.29553
H         79.11757       73.95621       73.86164
H         78.43624       74.13361       75.52222
H         77.14081       74.87211       72.80971
H         77.84049       76.02671       73.99705
H         76.04377       75.44393       75.64238
H         75.35038       74.25215       74.47734
H         75.63169       77.17890       73.99307
H         74.99464       76.02818       72.90274
H         74.20143       76.33581       74.37251
N         79.13681       70.33228       76.70198
C         80.03946       70.16513       77.84331
C         80.70366       68.79022       77.83834
O         81.49646       68.52427       78.73297
C         79.34909       70.50629       79.18372
C         78.29225       69.57814       79.72384
O         77.91317       68.45326       79.09613
O         77.74680       69.86920       80.77596
H         78.39151       69.64642       76.56930
H         80.86778       70.90252       77.76818
H         78.91109       71.52397       79.08439
H         80.13788       70.55857       79.96567
N         80.46571       67.87672       76.85066
C         81.11104       66.58124       76.77810
C         80.76191       65.70212       77.95130
O         81.66950       65.25332       78.63536
H         79.83091       68.10207       76.07440
H         82.21155       66.71965       76.70581
H         80.77945       66.06295       75.85257
N         79.46196       65.38714       78.22002
C         79.06723       64.46711       79.28805
C         78.41252       63.19513       78.74684
O         78.16261       62.29371       79.53607
C         78.19411       65.18823       80.34496
C         76.88638       65.77379       79.87115
O         76.54054       65.71556       78.70459
O         76.09439       66.40558       80.75769
H         78.73326       65.80484       77.62511
H         79.97376       64.11564       79.82566
H         78.79053       66.02128       80.77584
H         77.96843       64.47259       81.16419
N         78.11457       63.04001       77.42463
C         77.54721       61.83780       76.83690
C         76.10081       62.02934       76.43269
O         75.55465       61.14885       75.78621
H         78.27226       63.81573       76.77856
H         77.58230       60.97588       77.53668
H         78.16031       61.57485       75.94766
N         75.39030       63.10821       76.86972
C         73.96215       63.28951       76.66247
C         73.66705       64.66553       76.07831
O         74.35487       65.62973       76.38044
C         73.21614       63.06317       78.00647
C         73.27133       61.58115       78.39596
O         73.77437       63.80620       79.06114
H         75.85309       63.79696       77.46837
H         73.56126       62.53719       75.94775
H         72.14129       63.32657       77.88991
H         73.91508       64.72963       78.74145
H         72.80375       60.95705       77.60396
H         74.32000       61.24593       78.54374
H         72.71475       61.41532       79.34205
N         72.62116       64.80302       75.21730
C         72.24851       66.03847       74.53709
C         70.85539       66.44599       74.98831
O         69.95800       65.61721       75.02551
C         72.36238       65.80856       73.00170
C         73.86898       65.66257       72.64557
C         71.71952       66.95524       72.19475
C         74.14312       65.25043       71.20221
H         72.05274       63.96826       75.00793
H         72.93685       66.87270       74.79061
H         71.81568       64.87427       72.74387
H         74.33329       64.88480       73.28807
H         74.38868       66.62502       72.85009
H         71.76950       66.75522       71.10630
H         70.64044       67.04792       72.43785
H         72.22153       67.91962       72.40583
H         73.76812       66.00123       70.47973
H         75.24086       65.16252       71.05538
H         73.67729       64.26396       70.99756
N         70.61191       67.75126       75.30304
C         69.33224       68.26283       75.77599
C         68.65523       69.05031       74.66796
O         69.24051       69.22649       73.60819
C         69.56529       69.16443       77.02164
C         70.26969       68.40793       78.15202
O         70.34905       70.27243       76.65747
H         71.36140       68.43626       75.15748
H         68.65612       67.42136       76.04107
H         68.57725       69.52113       77.39170
H         70.29121       70.93324       77.39621
H         70.41178       69.08318       79.02370
H         69.66611       67.53508       78.47257
H         71.27140       68.06237       77.82016
N         67.39650       69.54861       74.84331
C         66.73151       70.34991       73.81556
C         67.48750       71.64676       73.57312
O         67.35796       72.22316       72.50165
C         65.26689       70.67471       74.19421
C         64.41603       69.40456       74.31771
O         65.23690       71.39197       75.40281
H         66.91097       69.35578       75.73124
H         66.72527       69.76119       72.87048
H         64.83651       71.29863       73.37522
H         64.34647       71.82743       75.45908
H         64.42660       68.84322       73.35960
H         64.78836       68.74257       75.12633
H         63.36564       69.67868       74.55135
N         68.26110       72.18523       74.55534
C         69.02949       73.40965       74.39934
C         70.16583       73.16136       73.42780
O         70.33522       73.89885       72.46797
C         69.63840       73.86233       75.75798
C         68.63791       73.98057       76.92674
C         67.47660       74.94550       76.66871
C         66.52915       74.96003       77.87755
N         65.41737       75.88440       77.66693
H         68.30035       71.70062       75.46030
H         68.36848       74.22839       74.04030
H         70.14425       74.84167       75.60809
H         70.41193       73.13713       76.09006
H         69.20013       74.32240       77.82316
H         68.22397       72.98203       77.17419
H         66.89917       74.61649       75.77867
H         67.87813       75.96546       76.48588
H         67.08923       75.26254       78.79016
H         66.12465       73.93483       78.03998
H         64.87079       75.60438       76.82036
H         64.78801       75.85438       78.50154
H         65.78032       76.85809       77.55039
N         71.00676       72.11781       73.66978
C         72.22228       71.83217       72.91749
C         71.94809       71.39157       71.48745
O         72.90357       71.28389       70.73058
C         73.03269       70.73914       73.65359
C         73.40161       71.18335       75.08212
C         74.07705       70.10591       75.85879
O         75.26778       70.35910       76.40175
O         73.53496       69.03407       76.06555
H         70.77975       71.52098       74.47486
H         72.83586       72.76054       72.89074
H         73.96497       70.50127       73.09930
H         72.41388       69.82108       73.69772
H         72.51401       71.46499       75.67456
H         74.06440       72.07325       75.02599
N         70.68974       71.10008       71.04537
C         70.39609       70.69727       69.68505
H         69.65726       71.40211       69.24960
H         71.29719       70.69491       69.03645
H         69.96120       69.67615       69.68860
H         69.89058       71.14455       71.69124
Ca        76.37452       68.81447       77.54460
O         74.51057       70.08047       79.52219
H         73.56601       70.19563       79.79505
H         74.84483       69.33524       80.08245
O         73.21051       67.11526       79.45161
H         73.33142       66.42010       80.14496
H         72.73836       67.84324       79.92578

Ca 1.0



