%chk=holoCaM-CaMKII.loop3.water2.frame319.chk
%nprocshared=20
%mem=10GB
%nosave
#b3lyp/svp scf=(tight,noincore,xqc) Test 
#IOP(5/87=12) Density=Current Pop=(MK,readradii) iop(6/33=2) iop(6/42=6)

holoCaM-CaMKII.loop3.water2.frame319 

   0  1 
C         48.30604       37.78239       71.42361
C         48.01661       38.75337       72.52760
O         46.94074       39.33483       72.53443
H         49.31426       37.33080       71.53567
H         47.54939       36.97100       71.43569
H         48.26308       38.31169       70.44885
N         48.93632       38.98078       73.50609
C         48.70926       39.92356       74.59189
C         48.55641       41.32225       74.02079
O         49.50008       41.83186       73.43086
C         49.87984       39.84529       75.58738
C         49.72997       40.73858       76.77397
O         50.66651       40.70756       77.72380
O         48.77826       41.48489       76.89850
H         49.82436       38.45524       73.47825
H         47.78205       39.61911       75.12895
H         50.83313       40.10208       75.07574
H         49.95321       38.80105       75.96224
N         47.35906       41.97053       74.09700
C         47.12471       43.23036       73.40244
C         47.81798       44.41259       74.08389
O         48.00769       45.43381       73.43947
C         45.60704       43.50696       73.30187
C         45.27485       44.46906       72.14814
C         43.79607       44.88341       72.11313
C         43.36802       45.78098       73.29224
N         44.15665       47.01521       73.36289
H         46.56712       41.49031       74.55163
H         47.51162       43.08802       72.36803
H         45.25282       43.87359       74.28839
H         45.06177       42.56302       73.07464
H         45.51505       43.94177       71.19804
H         45.90127       45.37786       72.16981
H         43.15231       43.97653       72.08405
H         43.62182       45.45018       71.17293
H         43.44340       45.23606       74.25680
H         42.29806       46.04624       73.14496
H         44.14115       47.51138       72.44197
H         43.74849       47.64249       74.09184
H         45.14255       46.80913       73.64129
N         48.10945       44.38284       75.41892
C         48.61524       45.52826       76.17474
C         49.96160       45.25638       76.85280
O         50.44147       46.13751       77.55323
C         47.51967       45.99735       77.15937
C         47.05636       44.93439       78.11184
O         45.89881       44.54830       78.08595
O         47.90463       44.41799       79.01055
H         47.88780       43.53369       75.95282
H         48.79483       46.39549       75.50227
H         46.64468       46.32626       76.55574
H         47.87384       46.87668       77.73961
N         50.67775       44.11644       76.62156
C         52.04136       43.92270       77.10209
C         52.20333       43.64456       78.58720
O         53.34533       43.50386       79.00394
H         50.30789       43.41018       75.97152
H         52.65026       44.80846       76.81703
H         52.47558       43.04373       76.57684
N         51.15102       43.51088       79.44683
C         51.31710       43.17103       80.86359
C         51.74663       41.71129       81.12420
O         51.74288       41.31309       82.28026
C         50.06315       43.54840       81.70188
C         48.69331       42.95436       81.32052
N         47.78496       43.09248       82.45445
O         48.75653       41.61707       80.94648
H         50.20298       43.67051       79.09077
H         52.10872       43.82329       81.29864
H         49.93749       44.65351       81.67611
H         50.28598       43.28820       82.76073
H         47.59669       44.10485       82.62958
H         46.88439       42.61231       82.24147
N         52.19295       40.87643       80.13888
C         52.63317       39.50661       80.37254
C         51.50766       38.48944       80.47849
O         51.82388       37.32572       80.69366
H         52.33920       41.23721       79.19643
H         53.28177       39.47609       81.27598
H         53.25719       39.18558       79.51167
N         50.18993       38.82365       80.35374
C         49.08678       37.87612       80.53254
C         48.07214       37.94999       79.39692
O         48.18910       38.81152       78.53444
C         48.39289       38.20358       81.87029
C         49.38184       38.10752       83.00643
C         49.80667       39.26522       83.67931
C         49.91440       36.86232       83.37821
C         50.76452       39.17963       84.69350
C         50.86337       36.77757       84.40044
C         51.29778       37.93423       85.05606
O         52.22895       37.83757       86.02610
H         49.95128       39.80571       80.19151
H         49.47492       36.83431       80.57112
H         47.53299       37.52945       82.07136
H         48.00081       39.23942       81.79972
H         49.41640       40.23721       83.40388
H         49.59725       35.95856       82.87306
H         51.09669       40.08243       85.19043
H         51.26816       35.81211       84.67618
H         52.56857       38.61474       86.49230
N         47.05393       37.04521       79.32126
C         46.00342       37.06041       78.30028
C         44.64952       36.85751       78.97973
O         44.49447       35.86610       79.68465
C         46.25504       35.94854       77.23489
C         47.64510       36.14822       76.56832
C         45.13454       35.97094       76.16903
C         48.01516       35.06732       75.55032
H         47.04656       36.27082       80.00614
H         46.00788       38.02960       77.74893
H         46.24335       34.95743       77.74080
H         48.43069       36.12138       77.35209
H         47.68809       37.14029       76.06698
H         45.12747       36.94240       75.62819
H         45.25706       35.15118       75.43428
H         44.13802       35.81769       76.63112
H         47.99288       34.06497       76.02766
H         47.33511       35.07862       74.67523
H         49.04164       35.25783       75.17138
N         43.60895       37.71621       78.77283
C         42.27955       37.54218       79.36741
C         41.23423       37.23487       78.30551
O         41.58167       37.12309       77.14001
C         41.88249       38.80334       80.16561
O         41.55982       39.88258       79.32911
H         43.76066       38.51264       78.13860
H         42.28771       36.69008       80.08140
H         42.67289       39.08305       80.89210
H         40.98020       38.58860       80.77279
H         42.38365       40.14151       78.85467
N         39.92085       37.09837       78.64030
C         38.84789       36.85492       77.67824
C         38.77891       37.95351       76.62832
O         38.77515       37.64407       75.44613
C         37.50159       36.76648       78.40953
H         39.66396       37.18721       79.63602
H         39.01519       35.87649       77.17392
H         37.52814       35.94118       79.15306
H         37.27601       37.71517       78.94300
H         36.68271       36.55852       77.68807
N         38.74239       39.26482       77.00013
C         38.66576       40.38081       76.05704
C         39.78212       40.33216       75.02959
O         39.50366       40.39636       73.84012
C         38.74652       41.71045       76.82043
H         38.79011       39.47770       78.00858
H         37.68662       40.35066       75.52922
H         39.71069       41.79259       77.36855
H         38.66625       42.56494       76.11480
H         37.91697       41.78252       77.55499
N         41.07386       40.20214       75.43333
C         42.22986       40.16010       74.53466
C         42.03938       39.05959       73.49595
O         42.09453       39.35852       72.31049
C         43.53001       40.02292       75.38549
C         43.74237       41.32377       76.21472
C         44.71841       41.27178       77.37500
O         46.03744       41.04982       77.23221
O         44.30634       41.52933       78.49293
H         41.23134       40.09885       76.44712
H         42.30564       41.12073       73.97583
H         44.42283       39.86142       74.74276
H         43.41093       39.13534       76.03674
H         42.77574       41.62678       76.66537
H         44.03095       42.14048       75.52184
N         41.71695       37.78888       73.85670
C         41.39764       36.76318       72.88455
H         40.53460       37.08780       72.26159
H         42.27103       36.56299       72.23080
H         41.10957       35.82351       73.40361
H         41.63973       37.55243       74.84898
Ca        47.29531       41.36742       79.15322
O         45.47252       39.86597       81.12968
H         44.63091       40.35488       80.95653
H         45.87946       40.34867       81.89178
O         45.01193       43.32119       80.65353
H         44.55779       42.83618       81.38739
H         45.26269       44.19365       81.04832

Ca 1.0



