%chk=holoCaM-CaMKII.loop2.water1.frame309.chk
%nprocshared=20
%mem=10GB
%nosave
#b3lyp/svp scf=(tight,noincore,xqc) Test 
#IOP(5/87=12) Density=Current Pop=(MK,readradii) iop(6/33=2) iop(6/42=6)

holoCaM-CaMKII.loop2.water1.frame309 

   -2  1 
C         61.22222        9.53213       45.71162
C         62.58559        9.59979       46.33500
O         63.05312       10.69154       46.62404
H         60.47805        9.98988       46.39581
H         61.22550       10.08138       44.74766
H         60.91801        8.48143       45.51587
N         63.28704        8.45791       46.57093
C         64.60676        8.43812       47.19014
C         65.59099        9.23132       46.33745
O         65.72983        8.91979       45.16274
C         65.04953        6.97238       47.36786
C         66.27644        6.79885       48.20486
O         66.70405        5.67566       48.39562
O         66.88377        7.84715       48.78577
H         62.85179        7.55942       46.30797
H         64.51903        8.88289       48.19991
H         65.20954        6.50846       46.37084
H         64.24115        6.41402       47.89007
N         66.28217       10.28965       46.85965
C         67.12610       11.17678       46.06110
C         68.61053       11.07876       46.39597
O         69.39437       11.65872       45.65716
C         66.63018       12.61813       46.22166
H         66.17725       10.49552       47.85836
H         67.03969       10.90113       44.98809
H         65.56165       12.68818       45.92506
H         66.72279       12.94293       47.28137
H         67.21769       13.31185       45.58375
N         69.08186       10.34953       47.44927
C         70.50184       10.08377       47.68001
C         70.78609        8.58187       47.66687
O         71.93330        8.20270       47.85660
C         71.02198       10.77003       48.96940
C         70.50091       10.27970       50.29407
O         69.56901        9.32189       50.38366
O         70.91322       10.79511       51.32056
H         68.41000        9.91961       48.08744
H         71.10539       10.52748       46.85881
H         70.81170       11.85923       48.89418
H         72.12578       10.64193       48.99889
N         69.79897        7.66646       47.42601
C         70.01148        6.23341       47.39569
C         70.45861        5.69689       48.73279
O         71.49888        5.05674       48.78416
H         68.84183        7.97517       47.21873
H         70.74798        5.98299       46.60132
H         69.05359        5.73528       47.13188
N         69.71282        5.90777       49.85808
C         70.06578        5.36530       51.16922
C         68.96070        4.45508       51.72139
O         69.04866        4.04158       52.86876
C         70.44958        6.51754       52.12212
C         69.29810        7.24557       52.76966
N         69.27087        7.38738       54.11606
O         68.40055        7.72078       52.09321
H         68.86149        6.48264       49.78488
H         70.98958        4.75281       51.08269
H         71.08978        7.23625       51.56403
H         71.08166        6.09795       52.93419
H         70.02276        7.00530       54.70763
H         68.51033        7.89935       54.57779
N         67.91984        4.05544       50.92972
C         66.86673        3.13639       51.33443
C         65.75274        3.73719       52.17687
O         64.81546        3.00264       52.45627
H         67.92550        4.31522       49.93789
H         67.31208        2.24796       51.83215
H         66.36740        2.77498       50.40835
N         65.75399        5.02977       52.61630
C         64.66513        5.61019       53.41360
C         64.13498        6.89744       52.78060
O         64.61777        7.29614       51.72785
C         65.14326        5.82395       54.87450
C         65.30555        4.48844       55.61768
O         66.32759        6.57475       54.92380
H         66.56691        5.62757       52.40785
H         63.79089        4.92407       53.46047
H         64.37199        6.37264       55.45106
H         67.08370        5.96365       54.72203
H         64.33430        3.94808       55.63638
H         66.06469        3.84327       55.12882
H         65.61612        4.68001       56.66654
N         63.12365        7.59851       53.38453
C         62.53725        8.82698       52.85221
C         62.90192        9.99108       53.77624
O         62.60750        9.92438       54.96236
C         60.97979        8.70231       52.73120
C         60.54635        7.41835       51.97637
C         60.40489        9.95513       52.03756
C         59.02207        7.24196       51.90358
H         62.74484        7.25459       54.27922
H         62.93518        9.02582       51.83505
H         60.55548        8.63915       53.75844
H         60.94426        6.53519       52.51988
H         60.96220        7.41244       50.94596
H         59.29776        9.95247       52.02719
H         60.69345       10.86969       52.58044
H         60.77310       10.02255       50.99132
H         58.77821        6.26721       51.43281
H         58.57787        7.26372       52.92216
H         58.54722        8.02904       51.28285
N         63.50194       11.11302       53.28064
C         63.76874       12.32045       54.06124
C         62.62512       13.29813       53.88925
O         61.69259       13.00665       53.15989
C         65.07340       12.99952       53.58216
C         66.29417       12.18031       53.85167
O         67.01393       11.82595       52.93180
O         66.63226       11.88090       55.12038
H         63.64024       11.17169       52.26887
H         63.83353       12.08088       55.14579
H         65.22546       13.96355       54.10915
H         64.99238       13.21908       52.49427
N         62.61155       14.48252       54.55830
C         61.51812       15.43524       54.43537
C         61.37913       15.96159       53.00479
O         60.27553       15.85778       52.48907
C         61.64946       16.56583       55.48153
C         60.47509       17.51523       55.46805
C         59.17704       17.05623       55.75830
C         60.67186       18.87736       55.18308
C         58.09884       17.94583       55.76294
C         59.59050       19.76289       55.18909
C         58.30541       19.29810       55.47970
H         63.38520       14.69530       55.20695
H         60.57836       14.89871       54.69846
H         62.58362       17.13203       55.34202
H         61.70896       16.11076       56.49390
H         58.99765       16.01384       55.98864
H         61.66149       19.25546       54.95825
H         57.10331       17.58705       55.99053
H         59.75014       20.81077       54.97134
H         57.47023       19.98614       55.48767
N         62.40303       16.52636       52.27693
C         62.21872       17.06344       50.92759
C         61.70560       16.03642       49.93235
O         61.17917       16.40939       48.89342
C         63.62993       17.50863       50.51423
C         64.25768       17.84996       51.84805
C         63.77486       16.69084       52.70954
H         61.51869       17.92301       51.01350
H         64.20307       16.63148       50.12932
H         63.65783       18.30804       49.74349
H         65.36063       17.97949       51.82968
H         63.78667       18.78647       52.22527
H         64.33428       15.75947       52.46668
H         63.91875       16.94584       53.76785
N         61.92167       14.71487       50.16054
C         61.51522       13.64170       49.26649
C         60.02323       13.43633       49.39909
O         59.31864       13.46442       48.40085
C         62.29873       12.35792       49.61875
C         63.81159       12.63124       49.49705
C         64.68837       11.49121       49.87197
O         66.00383       11.72911       49.94798
O         64.24976       10.37780       50.10618
H         62.43142       14.45450       51.01554
H         61.78947       13.88792       48.21479
H         62.00654       11.53274       48.93390
H         62.06956       12.04875       50.65893
H         64.10726       13.45094       50.17841
H         64.06886       12.94298       48.46183
N         59.47653       13.27090       50.63643
C         58.06347       13.11880       50.89691
H         57.46319       13.09100       49.96571
H         57.89757       12.17961       51.46464
H         57.71988       13.97282       51.51967
H         60.09156       13.29016       51.45586
Ca        67.49146       10.12043       50.29287
O         66.20853        9.14438       53.76873
H         65.40327        8.96059       54.31110
H         66.87670        9.43509       54.43680

Ca 1.0



