%chk=holoCaM.loop3.water3.frame480.chk
%nprocshared=20
%mem=10GB
%nosave
#b3lyp/svp scf=(tight,noincore,xqc) Test 
#IOP(5/87=12) Density=Current Pop=(MK,readradii) iop(6/33=2) iop(6/42=6)

holoCaM.loop3.water3.frame480 

   0  1 
C         98.73136       45.67772       65.85345
C         99.27270       44.31544       66.14906
O        100.03495       43.79821       65.34380
H         98.05718       46.02789       66.66258
H         99.57844       46.39062       65.76588
H         98.16915       45.65294       64.89804
N         98.95598       43.68110       67.31145
C         99.53828       42.39856       67.65832
C         99.00192       41.30365       66.72984
O         97.81066       41.02607       66.75612
C         99.28051       42.08497       69.14870
C        100.07501       40.90413       69.59580
O        100.86819       40.27889       68.71377
O         99.98040       40.49509       70.73835
H         98.34457       44.15821       67.99235
H        100.64158       42.50678       67.54377
H         98.19805       41.89294       69.31677
H         99.58831       42.95012       69.77480
N         99.83213       40.68097       65.84395
C         99.38154       39.71459       64.84157
C         98.84381       38.42093       65.45542
O         97.74016       38.04777       65.08457
C        100.49903       39.46233       63.79717
C        100.11628       38.52839       62.62656
C         98.85913       38.91627       61.82115
C         98.94898       40.28249       61.12328
N         97.73234       40.54418       60.35028
H        100.81848       40.97866       65.82664
H         98.56111       40.19516       64.26584
H        101.38954       39.02461       64.28596
H        100.80113       40.44602       63.37391
H         99.95350       37.50743       63.03173
H        100.98259       38.47584       61.92984
H         97.96811       38.89550       62.48134
H         98.71064       38.13821       61.04062
H         99.82609       40.29513       60.43905
H         99.07676       41.08931       61.87657
H         97.81229       41.47436       59.87964
H         97.60234       39.80754       59.61869
H         96.89926       40.55767       60.98314
N         99.53351       37.69313       66.39344
C         99.01025       36.43484       66.95004
C         98.36001       36.56518       68.32023
O         97.84551       35.56491       68.80830
C        100.00058       35.24787       66.83699
C        101.24714       35.09770       67.69331
O        101.72608       35.99156       68.58125
O        101.85713       34.04605       67.58866
H        100.42894       38.05820       66.73069
H         98.15570       36.10966       66.31622
H        100.30530       35.15728       65.77337
H         99.39807       34.34304       67.07919
N         98.22672       37.76136       68.95264
C         97.42466       37.92583       70.15292
C         97.97113       37.18342       71.34516
O         97.25524       36.38213       71.92794
H         98.62661       38.61162       68.53076
H         96.37966       37.60065       69.94630
H         97.38912       39.00413       70.41994
N         99.21772       37.47150       71.80556
C         99.75078       36.97131       73.06679
C         99.94820       38.13091       74.04439
O        100.49694       37.91274       75.11605
C        101.04727       36.16553       72.82461
C        102.26231       36.99695       72.48324
N        103.37976       36.91886       73.24402
O        102.25074       37.73222       71.51146
H         99.78732       38.13860       71.27201
H         99.03371       36.26064       73.53307
H        100.86119       35.42506       72.01607
H        101.27050       35.58991       73.74900
H        103.42251       36.29716       74.06461
H        104.21488       37.47281       73.00677
N         99.49178       39.38904       73.75269
C         99.64379       40.53530       74.62759
C        100.93630       41.29590       74.39838
O        101.11247       42.31269       75.05353
H         98.94155       39.55455       72.89918
H         99.52291       40.23423       75.69062
H         98.81987       41.24816       74.40184
N        101.88084       40.88897       73.49636
C        103.12696       41.61398       73.25748
C        103.29793       41.95264       71.78825
O        103.01739       41.10978       70.94716
C        104.34483       40.77998       73.68712
C        104.36901       40.51144       75.16971
C        103.57665       39.49853       75.73252
C        105.20376       41.27281       76.00381
C        103.62417       39.24729       77.10742
C        105.24041       41.03052       77.37818
C        104.45341       40.01288       77.93496
O        104.48815       39.76263       79.25909
H        101.73479       40.01806       72.96727
H        103.17200       42.55621       73.84802
H        105.24707       41.37736       73.42506
H        104.42139       39.82705       73.12407
H        102.93629       38.89457       75.10615
H        105.81860       42.06348       75.59174
H        103.01800       38.45548       77.52932
H        105.88290       41.63343       78.00716
H        105.05030       40.26984       79.86230
N        103.91764       43.11632       71.42312
C        104.28492       43.42821       70.04496
C        105.80265       43.35224       69.93460
O        106.49351       44.17466       70.52050
C        103.73857       44.82590       69.62016
C        102.19273       44.85645       69.72961
C        104.19848       45.18254       68.19136
C        101.57637       46.22392       69.42058
H        104.21803       43.77186       72.16115
H        103.85180       42.67161       69.35671
H        104.15757       45.58836       70.31487
H        101.89739       44.59609       70.76846
H        101.75346       44.10162       69.04422
H        103.88934       46.20810       67.90912
H        105.30401       45.17467       68.11973
H        103.78186       44.46425       67.45607
H        101.75092       46.52370       68.36763
H        100.47738       46.17461       69.56967
H        101.99383       46.99751       70.09968
N        106.38588       42.34843       69.21755
C        107.83048       42.19495       69.06182
C        108.41501       43.27991       68.16639
O        107.67124       44.07683       67.61543
C        108.14549       40.80220       68.47506
O        107.54740       40.65341       67.21719
H        105.77469       41.63339       68.80552
H        108.30307       42.24543       70.06732
H        107.74532       40.02757       69.16553
H        109.24492       40.66313       68.38617
H        107.79070       39.74669       66.89616
N        109.76326       43.35858       67.96764
C        110.38475       44.34311       67.08063
C        110.13575       44.06275       65.59532
O        110.58788       44.85054       64.77585
C        111.89642       44.38047       67.32964
H        110.37059       42.71266       68.49524
H        109.98740       45.35034       67.33810
H        112.09437       44.61833       68.39657
H        112.35773       43.39986       67.08542
H        112.37226       45.16988       66.70885
N        109.42748       42.97706       65.17127
C        109.16280       42.66094       63.77244
C        107.71181       42.95459       63.45812
O        107.44895       43.65352       62.48922
C        109.50425       41.19306       63.50284
H        109.03231       42.33572       65.86763
H        109.79161       43.27633       63.09013
H        108.89342       40.51851       64.14063
H        109.31246       40.94559       62.43651
H        110.57883       41.00995       63.71714
N        106.71924       42.51844       64.28552
C        105.31124       42.86550       64.11504
C        105.16769       44.37611       64.02777
O        104.62977       44.86474       63.04352
C        104.45941       42.30741       65.28429
C        104.47836       40.76831       65.33980
C        103.64045       40.23650       66.46826
O        102.74747       39.43975       66.24608
O        103.89839       40.58878       67.73799
H        106.99021       41.97080       65.11019
H        104.93064       42.42118       63.16819
H        103.40594       42.64079       65.15315
H        104.84022       42.71391       66.24715
H        105.50967       40.39812       65.49398
H        104.10541       40.35991       64.37518
N        105.68579       45.18138       64.99391
C        105.64572       46.62458       64.90215
H        104.59418       46.97805       64.88225
H        106.16192       47.07414       65.77731
H        106.16889       46.95889       63.97956
H        106.15815       44.75793       65.80205
Ca       101.46948       38.17052       68.90897
O        105.07030       37.55988       67.33614
H        105.37312       36.62040       67.26522
H        105.71134       38.06970       66.78003
O        104.31978       36.12488       70.10114
H        104.15580       35.52933       69.32845
H        104.87266       35.58333       70.71762
O        105.46058       38.98478       70.45991
H        105.97974       38.34887       69.90658
H        105.89520       38.94649       71.34837

Ca 1.0



