%chk=holoCaM.loop4.water3.frame479.chk
%nprocshared=20
%mem=10GB
%nosave
#b3lyp/svp scf=(tight,noincore,xqc) Test 
#IOP(5/87=12) Density=Current Pop=(MK,readradii) iop(6/33=2) iop(6/42=6)

holoCaM.loop4.water3.frame479 

   -3  1 
C        109.23760       44.25224       78.80432
C        108.37479       43.22833       79.47349
O        107.37725       42.82505       78.89136
H        110.25694       43.83404       78.66380
H        108.82626       44.51826       77.80648
H        109.29452       45.16562       79.42981
N        108.72415       42.73490       80.69671
C        107.98872       41.66811       81.35962
C        107.53335       42.10184       82.75196
O        108.32197       42.68789       83.48044
C        108.88616       40.41512       81.44988
C        108.07305       39.17256       81.69457
O        108.62551       38.11573       81.94408
O        106.73666       39.22155       81.52572
H        109.58207       43.08963       81.14702
H        107.10278       41.40654       80.74346
H        109.64484       40.56653       82.24874
H        109.42017       40.24773       80.48992
N        106.27945       41.80091       83.19782
C        105.71851       42.22930       84.47467
C        105.50272       41.03193       85.41562
O        105.52666       41.23639       86.62089
C        104.35606       42.97560       84.24439
C        104.31933       43.89295       82.99069
C        103.91461       43.75949       85.49617
C        105.31115       45.05157       82.97516
H        105.68518       41.24393       82.59370
H        106.43263       42.93118       84.95875
H        103.58153       42.20221       84.03610
H        103.29235       44.30877       82.88014
H        104.50928       43.27549       82.09071
H        104.65420       44.54857       85.74899
H        102.93040       44.24543       85.32034
H        103.80388       43.09347       86.37426
H        105.11931       45.75423       83.80963
H        106.35220       44.67821       83.02802
H        105.18966       45.60748       82.01988
N        105.19900       39.77989       84.94140
C        104.84998       38.63691       85.79472
C        105.74391       37.40157       85.58226
O        105.54566       36.42935       86.29812
C        103.34574       38.30833       85.60568
C        102.98709       38.06705       84.16846
O        103.58150       37.07463       83.49523
O        102.25523       38.84550       83.57822
H        105.13988       39.63469       83.92676
H        104.97304       38.90854       86.86556
H        102.76088       39.18357       85.96447
H        103.05463       37.43026       86.22066
N        106.76943       37.36778       84.67892
C        107.72103       36.25988       84.57638
C        107.19603       34.92990       84.04593
O        107.99540       34.00591       83.98116
H        106.95909       38.19876       84.10481
H        108.17077       36.08995       85.57911
H        108.54733       36.56104       83.90119
N        105.90359       34.72538       83.66142
C        105.40738       33.41687       83.22685
C        106.05259       32.89150       81.94500
O        105.99152       31.68869       81.73188
C        103.86290       33.38901       83.09645
C        103.27466       34.34002       82.08521
O        103.97340       35.12781       81.47408
O        101.94565       34.34054       81.87292
H        105.24453       35.49895       83.74412
H        105.66369       32.69767       84.03730
H        103.41121       33.63020       84.08189
H        103.55151       32.35840       82.82014
N        106.63471       33.71661       81.02703
C        107.27619       33.23196       79.80767
C        106.54337       33.61655       78.53245
O        107.05274       33.29191       77.46809
H        106.62090       34.73076       81.19072
H        107.35526       32.12340       79.80563
H        108.31098       33.63479       79.77952
N        105.33587       34.25288       78.54434
C        104.55689       34.55940       77.34722
C        104.26489       36.05167       77.24521
O        104.68791       36.81340       78.10575
C        103.23523       33.75788       77.38355
C        103.47873       32.23943       77.41937
C        102.20425       31.43501       77.30772
N        102.26293       30.08388       77.30263
O        101.11891       31.99014       77.20830
H        104.91015       34.49179       79.44315
H        105.10990       34.26659       76.42750
H        102.65086       33.97683       76.46664
H        102.62862       34.05946       78.26696
H        103.99265       31.96664       78.36643
H        104.13141       31.95885       76.56479
H        103.16794       29.59743       77.38172
H        101.40287       29.52252       77.21411
N        103.51766       36.53486       76.21032
C        103.17233       37.93933       76.02888
C        101.67990       38.10607       76.26178
O        100.88510       37.35153       75.71619
C        103.58932       38.43188       74.61936
C        103.27090       39.92974       74.44555
C        105.09128       38.20962       74.38116
H        103.14950       35.87366       75.50980
H        103.71804       38.57216       76.76510
H        103.02699       37.85741       73.85029
H        103.82256       40.53806       75.19582
H        103.56196       40.27138       73.42993
H        102.18496       40.12428       74.56522
H        105.37224       38.55786       73.36432
H        105.69553       38.76652       75.12972
H        105.34481       37.13094       74.44918
N        101.24288       39.10364       77.07247
C         99.86529       39.33289       77.47372
C         99.38143       40.65389       76.89249
O        100.14702       41.35021       76.23984
C         99.85426       39.30667       79.02661
C         98.54760       39.58883       79.71957
N         97.47914       38.77970       79.55077
O         98.46397       40.54906       80.47185
H        101.93676       39.76663       77.42935
H         99.20272       38.53194       77.07987
H        100.59524       40.04638       79.39335
H        100.19262       38.30297       79.35322
H         97.53045       37.95970       78.93096
H         96.60003       38.97481       80.05034
N         98.08433       41.02653       77.04334
C         97.51623       42.27045       76.53343
C         98.16057       43.50903       77.15254
O         98.53674       44.38441       76.38476
C         95.96152       42.24292       76.58522
C         95.34265       41.70949       77.86142
C         94.69737       40.45665       77.83915
C         95.40120       42.41733       79.06647
C         94.15127       39.91550       79.00304
C         94.86029       41.87213       80.23703
C         94.23864       40.61456       80.20854
O         93.72555       40.06723       81.32841
H         97.45993       40.36258       77.51531
H         97.73109       42.33878       75.44103
H         95.66692       41.54279       75.77148
H         95.53425       43.23032       76.30773
H         94.62989       39.88473       76.92160
H         95.86313       43.38809       79.09671
H         93.67160       38.94518       78.96767
H         94.92676       42.42526       81.16484
H         93.78092       40.50632       82.18858
N         98.36306       43.66595       78.49697
C         99.00987       44.86988       79.03424
C        100.48805       44.96205       78.64802
O        101.09245       45.98451       78.94488
C         98.94388       44.94445       80.58088
C         97.53469       44.91016       81.18869
C         96.66410       46.03715       80.70739
O         97.03033       47.31553       80.92035
O         95.61048       45.79964       80.13915
H         98.05711       42.92433       79.14006
H         98.47172       45.75610       78.62695
H         99.42421       45.89473       80.91002
H         99.52955       44.10339       81.01126
H         97.63027       44.99319       82.29253
H         97.06080       43.93399       80.97354
N        101.14419       43.94376       78.01365
C        102.57063       43.97069       77.70410
C        102.81645       44.12996       76.21214
O        103.96561       44.30787       75.83263
C        103.24651       42.64969       78.14651
C        102.84671       42.17585       79.54771
C        103.51164       40.87131       79.89308
O        104.19536       40.75681       81.02935
O        103.41103       39.89415       79.17526
H        100.63015       43.09673       77.76136
H        103.04400       44.83042       78.22768
H        104.35152       42.75560       78.06882
H        102.92914       41.85168       77.44057
H        101.75166       42.01189       79.57888
H        103.09957       42.94653       80.30199
N        101.80205       44.03012       75.30358
C        101.99320       44.11606       73.87280
H        103.04733       44.32221       73.59672
H        101.68974       43.15209       73.41143
H        101.35152       44.92534       73.46758
H        100.84201       43.84767       75.61510
Ca       105.06399       37.80971       81.98760
O        102.27216       37.47463       80.66618
H        101.94225       36.66034       80.21010
H        101.52723       37.74421       81.25988
O        107.18356       36.62647       79.35228
H        108.04086       36.29877       78.98405
H        107.33864       36.69384       80.32520
O        106.52599       39.30635       78.38324
H        107.49511       39.17433       78.53774
H        106.36200       40.24896       78.63440

Ca 1.0



