%chk=holoCaM-CaMKII.loop3.water2.frame50.chk
%nprocshared=20
%mem=10GB
%nosave
#b3lyp/svp scf=(tight,noincore,xqc) Test 
#IOP(5/87=12) Density=Current Pop=(MK,readradii) iop(6/33=2) iop(6/42=6)

holoCaM-CaMKII.loop3.water2.frame50 

   0  1 
C         11.33128       39.80855       91.90846
C         11.59017       38.33588       91.85455
O         10.67640       37.55908       92.09322
H         10.27471       40.01127       92.18467
H         11.99948       40.27491       92.66132
H         11.53227       40.25389       90.91136
N         12.82761       37.87798       91.51869
C         13.13163       36.45989       91.39579
C         13.00168       35.77700       92.75445
O         13.82976       35.99445       93.62800
C         14.53674       36.29486       90.77974
C         14.89904       34.89440       90.40445
O         15.98931       34.68229       89.90596
O         14.03859       33.87689       90.57491
H         13.55839       38.57223       91.29541
H         12.39645       36.02944       90.68096
H         15.29884       36.69404       91.48344
H         14.58312       36.89032       89.84129
N         11.91279       35.00184       93.01575
C         11.62891       34.38200       94.30712
C         12.52307       33.17660       94.57903
O         12.61136       32.75782       95.72389
C         10.14254       33.94977       94.30799
C          9.59464       33.44319       95.64763
C          8.08811       33.16803       95.51884
C          7.48331       32.69554       96.84533
N          6.04011       32.49226       96.71462
H         11.19857       34.93420       92.28267
H         11.76715       35.15747       95.09368
H          9.99530       33.16461       93.53343
H          9.54039       34.84189       94.02213
H          9.75712       34.22236       96.42361
H         10.11392       32.51038       95.95189
H          7.91428       32.39310       94.73925
H          7.57434       34.10426       95.20661
H          7.67198       33.45995       97.63144
H          7.96574       31.74228       97.15575
H          5.65422       32.17020       97.63131
H          5.57382       33.39112       96.45102
H          5.84050       31.76706       95.98785
N         13.12789       32.51003       93.55241
C         13.86940       31.25944       93.70435
C         15.30915       31.36057       93.20198
O         16.02530       30.37199       93.29577
C         13.11275       30.11660       92.97532
C         13.01777       30.30265       91.47164
O         13.56360       29.50398       90.73064
O         12.34658       31.35423       90.94883
H         13.00268       32.87337       92.60408
H         13.92359       30.97978       94.78035
H         12.08955       30.02450       93.39958
H         13.64592       29.16344       93.19309
N         15.81668       32.51258       92.67876
C         17.19291       32.65850       92.23385
C         17.59452       31.85663       91.00201
O         18.75973       31.96422       90.64535
H         15.23582       33.35939       92.66009
H         17.86627       32.38940       93.07618
H         17.37522       33.72890       91.99543
N         16.74947       31.03925       90.29593
C         17.23784       30.24517       89.15944
C         17.67824       31.08928       87.95687
O         18.24527       30.51889       87.03484
C         16.22513       29.15651       88.70736
C         14.94379       29.66161       88.09297
N         14.05017       28.79525       87.56398
O         14.70580       30.85224       88.06184
H         15.77371       30.93155       90.60144
H         18.12852       29.68688       89.52415
H         15.97187       28.50332       89.56961
H         16.72734       28.52594       87.94209
H         14.22991       27.78130       87.57174
H         13.18183       29.14274       87.12975
N         17.43314       32.43019       87.87803
C         17.83010       33.26939       86.75464
C         16.64282       33.85842       86.01373
O         16.86761       34.60557       85.07251
H         16.92698       32.89052       88.64022
H         18.42966       32.69750       86.01370
H         18.46680       34.09326       87.14099
N         15.35838       33.52964       86.33824
C         14.18722       33.96427       85.59627
C         13.17611       34.67782       86.52977
O         13.15387       34.29085       87.88315
C         13.54077       32.77196       84.85912
C         14.46449       32.11185       83.86308
C         14.34237       32.38000       82.48676
C         15.43343       31.19370       84.29705
C         15.17723       31.74059       81.56495
C         16.25739       30.54574       83.37312
C         16.13088       30.81613       82.00275
O         16.91268       30.19009       81.10019
H         15.18651       32.88970       87.11397
H         14.46117       34.69437       84.80242
H         12.66625       33.16147       84.29386
H         13.16597       32.00811       85.56697
H         13.60536       33.08677       82.12456
H         15.53627       30.96283       85.34876
H         15.07653       31.95715       80.50824
H         16.98803       29.82847       83.72380
H         17.56840       29.52727       81.36000
N         11.85034       34.84761       85.91951
C         10.74760       35.37782       86.74255
C          9.47058       34.99410       86.00359
O          9.33173       35.36808       84.84489
C         10.80640       36.93533       86.94550
C         12.14317       37.41230       87.57476
C          9.61637       37.38065       87.82789
C         12.27982       38.93275       87.68523
H         11.94810       35.40851       85.04065
H         10.75213       34.88637       87.73956
H         10.71286       37.41959       85.94858
H         12.98713       37.10485       86.93150
H         12.27142       36.95970       88.57790
H          8.64816       37.07327       87.38429
H          9.69775       36.93371       88.84268
H          9.56779       38.48217       87.92793
H         13.28289       39.18015       88.09362
H         12.18629       39.39566       86.67951
H         11.52813       39.37247       88.36874
N          8.48791       34.26546       86.60430
C          7.25737       33.86477       85.92548
C          6.09681       34.71739       86.39120
O          6.29716       35.59308       87.22000
C          6.98846       32.36831       86.17033
O          8.03297       31.60369       85.63893
H          8.59137       34.02504       87.60074
H          7.33756       34.03130       84.82828
H          6.04207       32.06501       85.67331
H          6.90053       32.18412       87.26587
H          7.80668       30.65599       85.83015
N          4.85211       34.55131       85.87175
C          3.70217       35.37019       86.24341
C          3.41509       35.28712       87.73144
O          3.29990       36.32100       88.37007
C          2.46448       34.93456       85.45482
H          4.71672       33.81362       85.16002
H          3.90508       36.43206       85.97340
H          1.59960       35.58140       85.71539
H          2.65854       35.03594       84.36535
H          2.20518       33.87715       85.67540
N          3.32458       34.07452       88.34880
C          3.06670       33.90956       89.77881
C          4.03611       34.72190       90.61596
O          3.59329       35.47095       91.47742
C          3.17177       32.42633       90.15675
H          3.47980       33.23124       87.77641
H          2.03103       34.24485       90.00742
H          2.43711       31.83215       89.57258
H          4.19113       32.03631       89.94539
H          2.95287       32.28846       91.23717
N          5.37342       34.65593       90.38144
C          6.37061       35.42931       91.12011
C          6.05947       36.91807       91.05262
O          5.86009       37.52361       92.09637
C          7.77763       35.12737       90.55940
C          8.18917       33.67592       90.86440
C          9.43656       33.28161       90.13241
O          9.42924       32.29547       89.41563
O         10.56147       34.00530       90.24395
H          5.68627       34.04233       89.61221
H          6.34996       35.12976       92.19298
H          8.53418       35.80343       91.01620
H          7.76980       35.30975       89.46399
H          7.39186       32.96078       90.57318
H          8.34239       33.57890       91.95761
N          5.97253       37.57019       89.86321
C          5.62762       38.97130       89.76769
H          4.62286       39.14369       90.20971
H          6.38188       39.58786       90.29929
H          5.59890       39.28029       88.70051
H          6.13778       37.05831       88.99436
Ca        12.51144       32.28432       88.84815
O         10.94058       29.51199       88.75492
H         11.01012       28.66217       89.25754
H         10.77549       29.23331       87.81955
O         10.81240       31.91353       86.40112
H         10.13558       31.74252       87.09905
H         11.02865       31.01601       86.04504

Ca 1.0



