%chk=holoCaM-CaMKII.loop1.water2.frame480.chk
%nprocshared=20
%mem=10GB
%nosave
#b3lyp/svp scf=(tight,noincore,xqc) Test 
#IOP(5/87=12) Density=Current Pop=(MK,readradii) iop(6/33=2) iop(6/42=6)

holoCaM-CaMKII.loop1.water2.frame480 

   0  1 
C         70.43662       81.22530       82.44877
C         70.85080       81.59824       83.84210
O         70.85597       82.77793       84.14748
H         69.40596       81.58693       82.25431
H         71.13143       81.69470       81.72256
H         70.46474       80.12629       82.29368
N         71.18499       80.63145       84.74322
C         71.64455       80.86589       86.11452
C         73.08004       81.39704       86.11835
O         73.99490       80.65032       86.43874
C         71.47543       79.53659       86.90387
C         71.98042       79.49208       88.33044
O         72.70455       78.56724       88.65968
O         71.60365       80.38338       89.27211
H         71.08035       79.65254       84.43313
H         70.97297       81.59160       86.59901
H         71.97451       78.71115       86.34827
H         70.38729       79.30790       86.92804
N         73.35356       82.68792       85.75705
C         74.71100       83.21368       85.64352
C         75.42594       83.32196       86.98956
O         76.62814       83.54951       86.96945
C         74.72147       84.63823       85.02888
C         74.07552       84.83198       83.64276
C         74.77911       84.07597       82.50470
C         74.33732       84.57488       81.11116
N         72.91234       84.36894       80.84768
H         72.57632       83.31416       85.52945
H         75.28194       82.52969       84.97683
H         75.77461       84.99109       84.95446
H         74.18894       85.31702       85.73165
H         74.15469       85.91986       83.42555
H         72.99845       84.57128       83.67031
H         74.60725       82.98246       82.60419
H         75.87218       84.26641       82.57283
H         74.92802       84.03684       80.33711
H         74.57419       85.65895       81.01814
H         72.69422       84.72229       79.88739
H         72.68355       83.35104       80.89198
H         72.32431       84.90310       81.52578
N         74.76340       83.25905       88.18630
C         75.42998       83.46730       89.47519
C         75.39266       82.23148       90.37070
O         75.93971       82.29280       91.46322
C         74.91313       84.75660       90.15830
C         73.46438       84.78190       90.55119
O         72.96056       85.89268       91.12212
O         72.74044       83.82020       90.37009
H         73.74588       83.10322       88.18920
H         76.51319       83.65816       89.31451
H         75.09002       85.60565       89.46181
H         75.51388       84.94433       91.07458
N         74.88876       81.04105       89.93264
C         75.12157       79.78673       90.63377
C         74.29298       79.53299       91.87373
O         74.49617       78.48370       92.46931
H         74.47823       80.97777       88.99189
H         76.20240       79.70914       90.87608
H         74.89014       78.95272       89.93791
N         73.30829       80.37269       92.30429
C         72.43391       80.03370       93.43480
C         71.55301       78.79678       93.17846
O         70.83211       78.40253       94.08488
C         71.55689       81.24253       93.83520
C         70.76015       81.81173       92.69449
O         70.90979       83.10589       92.36016
O         69.98795       81.11492       92.06156
H         73.16725       81.26458       91.80894
H         73.07125       79.80297       94.31775
H         72.21661       82.04643       94.22752
H         70.87046       80.94761       94.65937
N         71.56486       78.12441       91.99182
C         70.76249       76.94817       91.70809
C         69.29779       77.28279       91.62130
O         68.49139       76.56263       92.18551
H         72.16882       78.43868       91.22633
H         70.96715       76.13337       92.43745
H         71.05294       76.57530       90.70139
N         68.89945       78.32963       90.84702
C         67.51449       78.70573       90.54524
C         67.47792       79.77363       89.44630
O         68.47677       80.42749       89.17122
C         66.68369       79.23892       91.76083
C         66.18721       78.20981       92.78595
O         67.35413       80.28612       92.40853
H         69.65936       78.84371       90.37838
H         67.01609       77.81116       90.11048
H         65.73731       79.65101       91.34757
H         68.05862       79.87519       92.97594
H         65.63147       77.39598       92.27405
H         66.99828       77.79691       93.40946
H         65.49292       78.71385       93.49228
N         66.32965       79.95808       88.73881
C         66.17803       80.91128       87.64486
C         64.99790       81.81866       87.96624
O         63.92874       81.31922       88.29141
C         65.98905       80.15314       86.29796
C         67.21559       79.23357       86.03002
C         65.81252       81.15995       85.13950
C         67.06577       78.33722       84.79938
H         65.52167       79.35345       88.95731
H         67.09511       81.52859       87.52282
H         65.07554       79.52318       86.37236
H         67.36217       78.54976       86.89230
H         68.13573       79.85014       85.92091
H         66.71978       81.79382       85.03214
H         65.62412       80.64470       84.17765
H         64.93928       81.81970       85.31524
H         67.96115       77.68580       84.70953
H         66.16894       77.69100       84.90640
H         66.98947       78.92687       83.86473
N         65.11913       83.16933       87.85714
C         64.06367       84.12606       88.17233
C         63.53579       84.75979       86.89762
O         63.98076       84.40362       85.81731
C         64.62114       85.21405       89.13204
C         65.02537       84.63220       90.49438
O         65.68513       85.90990       88.52211
H         65.99796       83.54776       87.48892
H         63.19992       83.62262       88.65915
H         63.83240       85.96025       89.35831
H         66.54930       85.54095       88.83935
H         64.14632       84.16634       90.98630
H         65.81807       83.86783       90.37050
H         65.40766       85.44622       91.14814
N         62.56310       85.71145       86.95414
C         62.06053       86.42056       85.77915
C         63.20040       87.19549       85.12106
O         63.44842       87.01965       83.93675
C         60.89393       87.37686       86.16057
C         59.68465       86.62337       86.72636
O         61.31027       88.32815       87.10921
H         62.18279       85.95777       87.87904
H         61.65064       85.68542       85.04947
H         60.55842       87.87936       85.22096
H         61.04349       89.22417       86.77580
H         59.93628       86.10152       87.67319
H         58.86757       87.34357       86.94424
H         59.31354       85.87711       85.99366
N         63.95565       88.04796       85.87083
C         65.08108       88.85579       85.38693
C         66.26686       88.06442       84.82388
O         67.19903       88.70065       84.35124
C         65.58172       89.78442       86.52480
C         66.09354       89.00631       87.75510
C         66.54728       89.93485       88.87960
C         66.90961       89.11130       90.12514
N         67.36423       89.97452       91.21204
H         63.67847       88.14435       86.85356
H         64.70186       89.50285       84.56543
H         64.73816       90.43778       86.83837
H         66.39123       90.44235       86.13914
H         66.93656       88.34434       87.46602
H         65.28295       88.38011       88.16920
H         65.72032       90.63101       89.14213
H         67.42349       90.52686       88.53786
H         67.70996       88.37943       89.87596
H         66.01255       88.54278       90.46307
H         66.61835       90.66435       91.46073
H         67.57342       89.38467       92.04966
H         68.23380       90.47893       90.92458
N         66.30563       86.70390       84.80644
C         67.38987       85.92882       84.21609
C         66.89974       85.32140       82.91632
O         67.51243       85.57899       81.88909
C         67.88637       84.86392       85.21102
C         68.61039       85.50753       86.40680
C         69.08922       84.46193       87.36776
O         70.39976       84.24521       87.54353
O         68.29469       83.76697       87.97381
H         65.51797       86.17607       85.18946
H         68.25947       86.57288       83.95298
H         68.61103       84.19544       84.69709
H         67.03021       84.24386       85.54983
H         67.94897       86.21622       86.94394
H         69.48870       86.06974       86.02172
N         65.77495       84.55447       82.86915
C         65.21751       84.03323       81.63681
H         64.20355       84.46273       81.48794
H         65.83156       84.29150       80.74823
H         65.13551       82.92950       81.70246
H         65.26055       84.35703       83.73536
Ca        70.86927       82.45031       88.80794
O         69.62512       85.66323       90.32606
H         70.29350       85.45415       91.02512
H         70.11507       86.22558       89.67494
O         67.97780       83.53739       91.90315
H         67.70151       84.02335       92.71986
H         67.35715       82.76896       91.85225

Ca 1.0



