%chk=holoCaM-CaMKII.loop3.water2.frame343.chk
%nprocshared=20
%mem=10GB
%nosave
#b3lyp/svp scf=(tight,noincore,xqc) Test 
#IOP(5/87=12) Density=Current Pop=(MK,readradii) iop(6/33=2) iop(6/42=6)

holoCaM-CaMKII.loop3.water2.frame343 

   0  1 
C         15.21125       63.02541       57.47991
C         13.89131       62.85706       56.78510
O         13.13200       63.81373       56.72356
H         15.80134       63.81743       56.97358
H         15.03916       63.31904       58.53684
H         15.79961       62.08371       57.46868
N         13.54681       61.65972       56.23170
C         12.27335       61.43622       55.55737
C         11.13124       61.65023       56.53341
O         11.15909       61.10599       57.62848
C         12.24295       60.04051       54.90317
C         11.03421       59.84898       54.02079
O         10.80953       60.63054       53.11241
O         10.21940       58.79402       54.19116
H         14.22054       60.88009       56.28815
H         12.18783       62.16201       54.72336
H         12.30276       59.24721       55.67524
H         13.13532       59.95035       54.24619
N         10.10182       62.46956       56.18831
C          9.01496       62.86409       57.07992
C          8.32667       61.65861       57.70018
O          8.21105       61.62205       58.91731
C          8.03848       63.77688       56.30393
C          7.01386       64.50469       57.18598
C          6.21774       65.51418       56.34018
C          5.27051       66.36507       57.19426
N          4.57021       67.35028       56.36776
H         10.10865       62.85389       55.23211
H          9.45360       63.47813       57.89875
H          7.52350       63.19732       55.50954
H          8.65039       64.57104       55.82219
H          7.56298       65.06432       57.97472
H          6.32777       63.77738       57.67058
H          5.63885       64.97493       55.55851
H          6.93051       66.20531       55.84174
H          5.85977       66.90139       57.97157
H          4.52904       65.71011       57.70141
H          3.98852       66.86781       55.64488
H          3.94631       67.92884       56.97535
H          5.25886       67.98293       55.89771
N          7.90744       60.60885       56.93559
C          7.27836       59.40979       57.49665
C          8.15876       58.16304       57.39796
O          7.71344       57.10922       57.83261
C          5.88494       59.18594       56.86853
C          5.86092       58.91677       55.38511
O          4.78956       58.71372       54.83821
O          6.98663       58.89681       54.64797
H          8.07656       60.65504       55.92087
H          7.10094       59.54749       58.58587
H          5.26172       60.08407       57.06774
H          5.40502       58.32204       57.37911
N          9.43215       58.20238       56.90780
C         10.31849       57.04420       56.90224
C          9.92022       55.92495       55.95463
O         10.59099       54.90240       55.98112
H          9.82636       59.09950       56.60235
H         10.37793       56.64416       57.93787
H         11.34127       57.36331       56.61356
N          8.86241       56.01910       55.09595
C          8.43143       54.90963       54.24690
C          9.42609       54.51539       53.14799
O          9.13396       53.54744       52.45818
C          7.03108       55.19096       53.64235
C          6.97634       56.36596       52.65726
N          5.62478       56.52309       52.13505
O          7.83466       56.12841       51.59090
H          8.30120       56.87718       55.09241
H          8.29581       54.02509       54.90927
H          6.32243       55.39536       54.47464
H          6.67411       54.27649       53.11905
H          4.99523       56.83064       52.90840
H          5.63466       57.27688       51.41071
N         10.60316       55.17638       52.91915
C         11.55158       54.75343       51.89523
C         12.11079       55.92001       51.10862
O         13.31498       56.12381       51.17907
H         10.88232       55.95879       53.52580
H         11.11263       54.00798       51.19741
H         12.40134       54.25733       52.41306
N         11.31979       56.72440       50.33608
C         11.85299       57.85337       49.56709
C         11.40022       59.23098       50.14328
O         10.05075       59.50255       49.88942
C         11.59808       57.70881       48.04279
C         10.15410       57.56559       47.60774
C          9.46763       58.65292       47.03796
C          9.49867       56.32527       47.70965
C          8.14866       58.50597       46.59515
C          8.18394       56.17736       47.25475
C          7.50346       57.26520       46.69900
O          6.23566       57.10620       46.26708
H         10.31522       56.51863       50.30054
H         12.95825       57.86421       49.67423
H         12.15744       56.83442       47.64439
H         12.04409       58.59783       47.54629
H          9.95015       59.61756       46.94231
H         10.01227       55.46481       48.11969
H          7.63051       59.35569       46.16835
H          7.69551       55.21334       47.32736
H          5.72878       57.83257       45.87656
N         12.21290       60.31418       49.56093
C         11.93318       61.65951       50.11150
C         11.68349       62.61120       48.95426
O         12.49941       62.67906       48.04357
C         13.03638       62.17750       51.10121
C         12.51917       63.46272       51.80908
C         14.40794       62.41850       50.43388
C         13.47277       64.05362       52.84849
H         13.22755       60.08049       49.61451
H         11.00042       61.62044       50.71323
H         13.17491       61.39972       51.88507
H         11.57440       63.20783       52.33608
H         12.29637       64.25587       51.06432
H         14.79971       61.50846       49.94210
H         14.35263       63.23706       49.68821
H         15.16494       62.69476       51.19559
H         14.38886       64.45256       52.36887
H         12.96801       64.89651       53.36532
H         13.76060       63.29659       53.60284
N         10.56931       63.39536       48.93973
C         10.22709       64.32142       47.86830
C         10.38051       65.75626       48.34270
O         10.82299       65.96378       49.46355
C          8.79126       64.02218       47.40100
O          8.68661       62.69635       46.95548
H          9.93435       63.36254       49.75136
H         10.91186       64.20062       46.99952
H          8.46504       64.71286       46.59301
H          8.08451       64.16463       48.24721
H          9.08618       62.66976       46.04675
N         10.08247       66.80587       47.53177
C         10.30009       68.20577       47.89305
C          9.54139       68.62014       49.14418
O         10.16258       69.12862       50.06397
C          9.89835       69.12037       46.73200
H          9.71612       66.59864       46.58767
H         11.38860       68.36318       48.07199
H         10.48997       68.86343       45.82759
H          8.81856       69.00875       46.49530
H         10.10220       70.18123       46.99200
N          8.19316       68.43603       49.23959
C          7.40359       68.85588       50.39854
C          7.95277       68.27665       51.68424
O          8.18103       69.02731       52.62476
C          5.94205       68.42564       50.22608
H          7.71228       67.96916       48.45689
H          7.41853       69.96635       50.47175
H          5.51756       68.88055       49.30632
H          5.86147       67.32009       50.14915
H          5.33862       68.76813       51.09471
N          8.22757       66.94894       51.77770
C          8.77891       66.31949       52.97269
C         10.06557       67.00648       53.40987
O         10.13963       67.44011       54.55080
C          9.00971       64.81266       52.72989
C          7.67986       64.06252       52.52013
C          7.89086       62.58239       52.38546
O          7.34855       61.74031       53.28451
O          8.53315       62.13126       51.45278
H          8.06160       66.36990       50.93988
H          8.05107       66.41722       53.80656
H          9.50755       64.38601       53.62293
H          9.68112       64.66573       51.85691
H          7.15217       64.42666       51.61446
H          7.02281       64.24835       53.39607
N         11.09751       67.18099       52.54124
C         12.32714       67.87293       52.87165
H         13.19142       67.20556       52.67789
H         12.42480       68.77132       52.22568
H         12.36027       68.19812       53.93210
H         10.99743       66.83996       51.58378
Ca         8.74204       58.14055       51.12321
O          6.57267       59.33012       49.41664
H          6.94482       58.42890       49.24595
H          7.25382       59.95389       49.05989
O          5.15144       60.21252       51.94273
H          4.33630       59.72832       51.65844
H          5.73991       59.50989       52.31605

Ca 1.0



