%chk=holoCaM-CaMKII.loop4.water1.frame321.chk
%nprocshared=20
%mem=10GB
%nosave
#b3lyp/svp scf=(tight,noincore,xqc) Test 
#IOP(5/87=12) Density=Current Pop=(MK,readradii) iop(6/33=2) iop(6/42=6)

holoCaM-CaMKII.loop4.water1.frame321 

   -3  1 
C         49.16672       30.14279       85.58033
C         50.29303       30.77488       86.33851
O         51.39986       30.84285       85.82377
H         48.35668       30.88944       85.43623
H         49.51026       29.79473       84.58306
H         48.77022       29.27785       86.15078
N         50.06765       31.29890       87.57322
C         51.10134       31.99164       88.32623
C         52.19133       31.02089       88.78621
O         51.84936       29.98246       89.33569
C         50.49644       32.70765       89.55578
C         51.46766       33.72190       90.09700
O         51.22536       34.31075       91.13135
O         52.57520       34.00373       89.38011
H         49.11000       31.25582       87.95654
H         51.50905       32.78106       87.65517
H         50.22556       31.95508       90.32962
H         49.57805       33.26718       89.27465
N         53.51964       31.31612       88.63863
C         54.60493       30.40225       89.00509
C         55.41694       30.92096       90.21455
O         56.30072       30.20264       90.65646
C         55.53262       30.17211       87.75558
C         54.75881       29.98555       86.41833
C         56.52711       29.00556       87.94252
C         53.85647       28.75521       86.34414
H         53.77569       32.22492       88.23842
H         54.16917       29.42350       89.30237
H         56.13125       31.09789       87.61407
H         55.49441       29.92773       85.58553
H         54.13664       30.88248       86.21981
H         57.22932       29.17318       88.77800
H         55.99102       28.05105       88.12499
H         57.15601       28.89201       87.03379
H         54.44381       27.82097       86.44330
H         53.07500       28.79034       87.12826
H         53.35632       28.73879       85.35202
N         55.17673       32.12811       90.82197
C         55.97717       32.63936       91.94744
C         55.16201       32.82302       93.21959
O         55.75199       33.16177       94.23788
C         56.52274       34.04702       91.62447
C         57.29473       34.15884       90.34766
O         56.76797       34.86588       89.32895
O         58.39573       33.64556       90.23561
H         54.41243       32.71797       90.47634
H         56.81818       31.94726       92.16973
H         57.15753       34.42923       92.45414
H         55.65116       34.73148       91.56266
N         53.80574       32.71752       93.23298
C         53.00674       33.08994       94.38483
C         53.13755       34.57173       94.68798
O         53.41652       34.93315       95.82160
H         53.29554       32.42367       92.38866
H         53.27259       32.46665       95.26582
H         51.93817       32.90402       94.14084
N         52.90549       35.48216       93.70081
C         52.83962       36.92997       93.88858
C         51.43993       37.45984       93.55115
O         51.23355       38.66436       93.61327
C         53.93342       37.63007       93.04662
C         53.79103       37.50172       91.55093
O         54.62331       38.02192       90.82553
O         52.75571       36.84489       90.99591
H         52.73101       35.11809       92.75886
H         53.04263       37.18874       94.95079
H         54.92239       37.21826       93.34363
H         53.93102       38.71549       93.28954
N         50.42301       36.61320       93.20883
C         49.07189       37.02831       92.88286
C         48.98486       37.81403       91.59395
O         48.39743       38.88247       91.60371
H         50.57951       35.59733       93.21058
H         48.63053       37.59486       93.73195
H         48.45732       36.11315       92.73575
N         49.50258       37.30219       90.43579
C         49.34580       37.91529       89.10609
C         49.96835       37.05940       88.00522
O         50.68304       36.11443       88.30012
C         49.87540       39.37774       89.05386
C         51.30849       39.62993       89.57013
C         52.42647       39.20816       88.64255
N         53.28794       40.13010       88.15042
O         52.58681       38.03419       88.35619
H         49.98797       36.40104       90.51408
H         48.25588       37.94056       88.88709
H         49.21389       39.98286       89.70276
H         49.75365       39.81035       88.03743
H         51.43929       39.16445       90.56900
H         51.39610       40.72787       89.71837
H         53.19317       41.12858       88.38669
H         54.06434       39.84406       87.53688
N         49.69887       37.32537       86.68921
C         50.30277       36.56946       85.59357
C         50.92708       37.55602       84.61581
O         50.18697       38.23678       83.91891
C         49.23688       35.67897       84.88447
C         49.87850       34.78367       83.81164
C         48.48461       34.78698       85.88642
H         49.02841       38.07301       86.45841
H         51.09231       35.89621       85.99303
H         48.48243       36.33523       84.39624
H         50.41119       35.38753       83.04870
H         50.59392       34.07717       84.28277
H         49.09903       34.18878       83.28918
H         47.72242       34.17583       85.35610
H         49.18432       34.10634       86.41673
H         47.94659       35.40575       86.63491
N         52.28011       37.72766       84.54122
C         52.88544       38.68860       83.61489
C         52.88345       38.14644       82.18707
O         52.36980       37.06003       81.96394
C         54.28647       39.17559       84.08597
C         55.48107       38.28364       83.83223
N         55.62718       37.08609       84.43238
O         56.36760       38.68690       83.09405
H         52.86494       37.22439       85.21709
H         52.27329       39.61784       83.65396
H         54.24039       39.44531       85.16134
H         54.49144       40.12381       83.54152
H         54.92722       36.72981       85.08649
H         56.47092       36.52015       84.25986
N         53.45779       38.84639       81.16727
C         53.54222       38.34771       79.79438
C         54.31580       37.03615       79.71608
O         53.86113       36.12729       79.03938
C         54.23021       39.38689       78.88211
C         54.31198       38.88406       77.45642
C         53.14159       38.63133       76.71847
C         55.56150       38.63495       76.86461
C         53.22144       38.12982       75.41626
C         55.63852       38.13138       75.56288
C         54.46748       37.87447       74.83513
O         54.52711       37.38029       73.58217
H         53.86970       39.76741       81.37764
H         52.51188       38.18704       79.40618
H         55.25014       39.58741       79.27912
H         53.66609       40.34458       78.89853
H         52.16658       38.81499       77.15185
H         56.47654       38.81559       77.41483
H         52.31275       37.93335       74.86087
H         56.60853       37.93538       75.12406
H         55.36845       37.18072       73.14740
N         55.51145       36.88419       80.35102
C         56.32561       35.66789       80.27253
C         55.64334       34.41470       80.83529
O         56.23599       33.35224       80.70359
C         57.66834       35.87364       81.02293
C         58.58280       36.97550       80.45057
C         59.18851       36.60877       79.12182
O         60.52487       36.47653       79.01266
O         58.48880       36.44894       78.13541
H         55.86237       37.68554       80.89020
H         56.53052       35.45785       79.20312
H         58.25797       34.93033       81.03954
H         57.42647       36.13188       82.07612
H         59.41834       37.11625       81.17040
H         58.05068       37.94543       80.36774
N         54.42474       34.43416       81.45544
C         53.76534       33.23496       81.97717
C         52.46124       32.93108       81.24483
O         51.88511       31.88553       81.51180
C         53.49070       33.40415       83.48469
C         54.77445       33.70335       84.26453
C         54.50788       33.94323       85.72113
O         55.21566       33.27185       86.64274
O         53.69727       34.78283       86.07941
H         53.94445       35.32695       81.58843
H         54.41846       32.34672       81.83443
H         53.01222       32.48652       83.89324
H         52.79442       34.26047       83.61547
H         55.23151       34.61688       83.84901
H         55.50069       32.87018       84.14916
N         51.93638       33.77632       80.31024
C         50.73360       33.50278       79.55225
H         49.97974       34.29041       79.76093
H         50.97832       33.52487       78.46847
H         50.29528       32.51257       79.79121
H         52.39127       34.66869       80.11065
Ca        54.51954       35.13470       89.41598
O         55.87593       37.18913       87.52020
H         56.33490       37.99858       87.85692
H         56.60212       36.62778       87.14783

Ca 1.0



