%chk=holoCaM.loop4.water3.frame273.chk
%nprocshared=20
%mem=10GB
%nosave
#b3lyp/svp scf=(tight,noincore,xqc) Test 
#IOP(5/87=12) Density=Current Pop=(MK,readradii) iop(6/33=2) iop(6/42=6)

holoCaM.loop4.water3.frame273 

   -3  1 
C         35.86927       66.93509       80.39304
C         35.93256       66.81479       78.89885
O         36.75971       67.47734       78.29177
H         34.85484       67.24081       80.71644
H         36.12141       65.95157       80.84583
H         36.60943       67.68039       80.75930
N         35.12307       65.93386       78.24145
C         35.33550       65.58096       76.84280
C         34.05113       65.17744       76.12124
O         33.34632       64.31590       76.62889
C         36.29644       64.38214       76.83298
C         36.58799       63.94624       75.44021
O         36.27800       62.69452       75.05200
O         37.07282       64.73735       74.64932
H         34.51026       65.33146       78.81263
H         35.82903       66.41287       76.29442
H         35.85306       63.53283       77.39775
H         37.25338       64.66182       77.32218
N         33.75971       65.66476       74.86964
C         32.65535       65.14471       74.05035
C         33.12026       64.47774       72.73825
O         32.26980       63.90650       72.06954
C         31.60448       66.25141       73.71034
C         32.15200       67.32333       72.72532
C         31.05404       66.89725       74.99301
C         31.05548       68.20962       72.12782
H         34.37206       66.38758       74.46786
H         32.12423       64.35356       74.62219
H         30.76146       65.73287       73.20042
H         32.62804       66.82722       71.85538
H         32.91655       67.95239       73.22163
H         30.64998       66.11782       75.67175
H         31.85362       67.45687       75.52423
H         30.22677       67.59924       74.76543
H         31.50577       68.91022       71.39263
H         30.31126       67.58075       71.59156
H         30.53843       68.80995       72.90097
N         34.39703       64.59267       72.25383
C         34.78869       64.17441       70.89215
C         36.04933       63.30268       70.80430
O         36.35658       62.84678       69.71110
C         34.96677       65.43339       70.00729
C         36.01928       66.39523       70.50813
O         36.72780       66.11021       71.62051
O         36.19762       67.44955       69.92305
H         35.06982       65.11197       72.82270
H         33.96789       63.57799       70.43720
H         33.99584       65.97417       69.98012
H         35.21020       65.13329       68.96436
N         36.82931       63.03059       71.88530
C         38.00778       62.16966       71.85869
C         39.19813       62.67835       71.05124
O         40.16401       61.93505       70.95038
H         36.54421       63.40457       72.78584
H         37.70112       61.17886       71.45935
H         38.36335       62.01588       72.90056
N         39.21645       63.89383       70.43177
C         40.29624       64.31255       69.53033
C         41.67766       64.50759       70.17428
O         42.62676       64.67289       69.42065
C         39.86996       65.56880       68.73321
C         39.57040       66.77737       69.57444
O         39.69790       66.74239       70.90943
O         39.17777       67.79941       69.03890
H         38.39324       64.50115       70.52351
H         40.41527       63.50019       68.77967
H         38.94426       65.32076       68.17031
H         40.65939       65.83404       67.99793
N         41.88268       64.51583       71.52359
C         43.20362       64.63648       72.14192
C         43.41259       65.94485       72.88657
O         44.45156       66.08910       73.51622
H         41.07631       64.43145       72.14854
H         44.01765       64.56514       71.38846
H         43.33124       63.78543       72.84467
N         42.51266       66.96421       72.80894
C         42.68261       68.27547       73.43428
C         41.46326       68.62464       74.27506
O         40.50742       67.86190       74.26469
C         42.94151       69.33589       72.33312
C         41.84013       69.41096       71.25130
C         42.13948       70.40916       70.15813
N         41.27599       70.55253       69.12605
O         43.16077       71.08039       70.18546
H         41.67491       66.82431       72.23815
H         43.56810       68.27259       74.10750
H         43.89869       69.07320       71.83032
H         43.06798       70.33533       72.80222
H         40.86803       69.67176       71.72180
H         41.74835       68.42753       70.74974
H         40.41225       69.99493       69.08217
H         41.47121       71.21844       68.36421
N         41.42398       69.76172       75.03606
C         40.24210       70.16216       75.80077
C         39.75962       71.53348       75.33156
O         40.45080       72.52655       75.50803
C         40.47876       70.04890       77.33546
C         41.64594       70.89563       77.86414
C         39.19238       70.37986       78.11225
H         42.25665       70.36981       75.06313
H         39.42362       69.44226       75.59600
H         40.72962       68.98489       77.54797
H         41.46399       71.97911       77.72187
H         41.77713       70.71010       78.95247
H         42.59476       70.61120       77.36507
H         39.34067       70.20780       79.19956
H         38.89736       71.43975       77.96097
H         38.35891       69.72859       77.77495
N         38.57305       71.62915       74.66882
C         38.01337       72.86445       74.11476
C         37.50526       73.80094       75.20936
O         37.52339       73.43579       76.37170
C         36.86693       72.44484       73.15553
C         36.16337       73.52531       72.38193
N         36.84410       74.34282       71.54827
O         34.95180       73.63959       72.48183
H         38.06791       70.74929       74.48768
H         38.80239       73.37477       73.52075
H         36.11204       71.87066       73.73442
H         37.31212       71.77335       72.40156
H         37.86355       74.25243       71.43701
H         36.34586       75.07030       71.01460
N         37.02782       75.03826       74.88927
C         36.38169       75.95653       75.82800
C         35.06551       75.36964       76.31803
O         34.84764       75.30370       77.52002
C         36.10398       77.29902       75.11223
C         35.42215       78.32026       75.99374
C         36.05217       78.80735       77.15173
C         34.14849       78.80626       75.65112
C         35.41891       79.76595       77.94988
C         33.51788       79.76353       76.45020
C         34.15262       80.24865       77.60216
O         33.55837       81.17774       78.37790
H         37.11528       75.34461       73.91176
H         37.06096       76.15824       76.68581
H         35.47855       77.10235       74.21345
H         37.06532       77.72900       74.75708
H         37.03488       78.45191       77.43411
H         33.64192       78.44660       74.76393
H         35.91520       80.13749       78.83765
H         32.53778       80.12918       76.17065
H         32.68684       81.54263       78.16726
N         34.14526       74.91105       75.41725
C         32.84083       74.34082       75.76949
C         32.94297       73.06488       76.60970
O         31.90842       72.54599       77.00651
C         32.02181       74.00472       74.49531
C         31.77211       75.21531       73.57568
C         30.92113       74.86363       72.38291
O         30.45030       73.61306       72.20168
O         30.65336       75.72636       71.56241
H         34.39604       74.98703       74.42590
H         32.27950       75.10126       76.35597
H         31.03012       73.60916       74.81069
H         32.54692       73.20998       73.91904
H         32.73143       75.61389       73.18866
H         31.26238       76.01644       74.15135
N         34.14341       72.50957       76.93022
C         34.31669       71.30825       77.72653
C         34.86656       71.70277       79.08635
O         34.27500       71.33372       80.09134
C         35.25821       70.34965       76.97675
C         34.66832       69.92039       75.62044
C         35.60826       69.05210       74.83277
O         35.29205       68.68138       73.71491
O         36.80485       68.69209       75.33186
H         35.00792       72.94294       76.59705
H         33.34984       70.78213       77.89436
H         35.42966       69.45036       77.59823
H         36.23512       70.85573       76.80573
H         34.45105       70.82012       75.00821
H         33.71662       69.37011       75.78417
N         35.95908       72.50751       79.19759
C         36.46041       72.97574       80.46969
H         37.31283       73.67032       80.30416
H         35.66271       73.53015       81.00975
H         36.80679       72.11882       81.08201
H         36.43244       72.84017       78.35385
Ca        38.00640       67.45081       72.90537
O         39.86356       64.75528       74.24743
H         39.27467       64.33439       73.57249
H         40.41674       64.01104       74.59197
O         38.75927       66.58130       76.13857
H         39.48633       66.04231       76.53781
H         38.75343       67.41378       76.66986
O         37.27734       69.60590       71.40101
H         36.35310       69.82341       71.12155
H         37.81485       69.64186       70.57189

Ca 1.0



