%chk=holoCaM-CaMKII.loop3.water2.frame79.chk
%nprocshared=20
%mem=10GB
%nosave
#b3lyp/svp scf=(tight,noincore,xqc) Test 
#IOP(5/87=12) Density=Current Pop=(MK,readradii) iop(6/33=2) iop(6/42=6)

holoCaM-CaMKII.loop3.water2.frame79 

   0  1 
C          3.01297       50.93243       79.17035
C          4.05466       49.92174       79.55711
O          3.94619       48.77502       79.14769
H          2.01994       50.61946       79.55411
H          3.24987       51.93656       79.58284
H          2.96968       51.01350       78.06380
N          5.09962       50.28566       80.35160
C          6.17990       49.39279       80.74593
C          6.12247       49.21692       82.25508
O          7.01501       49.65251       82.97004
C          7.50144       49.99669       80.22088
C          8.71832       49.14644       80.44315
O          9.79868       49.53325       80.03250
O          8.63729       47.95933       81.06460
H          5.14369       51.25797       80.69489
H          6.05716       48.39335       80.28461
H          7.66759       50.99140       80.68569
H          7.40572       50.13840       79.12417
N          5.03724       48.59748       82.80214
C          4.79091       48.49750       84.24196
C          5.74072       47.55366       84.97965
O          5.60334       47.44257       86.19064
C          3.32540       48.08365       84.52050
C          2.32456       49.06318       83.87870
C          0.88314       48.77140       84.31109
C         -0.12988       49.72111       83.64582
N         -0.27351       49.46618       82.20933
H          4.32059       48.24892       82.14904
H          4.91325       49.51311       84.68076
H          3.16604       48.09590       85.62196
H          3.13190       47.05278       84.14962
H          2.40270       48.99236       82.77919
H          2.57532       50.10262       84.18494
H          0.82599       48.91764       85.41220
H          0.60610       47.71915       84.08444
H          0.16947       50.77914       83.81918
H         -1.11963       49.56459       84.12741
H         -0.59110       48.48164       82.05335
H         -0.99543       50.11440       81.82045
H          0.61942       49.63486       81.69637
N          6.74573       46.88023       84.34939
C          7.71958       46.05207       85.05444
C          9.00941       46.83937       85.20253
O          9.44520       47.03896       86.32817
C          7.88632       44.65946       84.39861
C          8.33015       44.64948       82.96110
O          7.62266       45.11566       82.08233
O          9.48837       44.05178       82.63027
H          6.88636       47.02670       83.34482
H          7.37070       45.83786       86.09021
H          6.92084       44.11249       84.45731
H          8.63107       44.09018       84.99769
N          9.62098       47.39555       84.12114
C         10.76510       48.29086       84.20938
C         11.95429       47.83524       83.39306
O         12.95356       48.54039       83.40595
H          9.21283       47.23464       83.19735
H         11.09777       48.41624       85.26231
H         10.45142       49.28856       83.83427
N         11.94899       46.67318       82.67676
C         13.12818       46.18398       81.96450
C         13.57295       47.07991       80.81347
O         14.67078       46.87265       80.31596
C         12.91109       44.72324       81.50363
C         11.89404       44.54088       80.39454
N         12.14690       43.68700       79.37581
O         10.82029       45.12225       80.43411
H         11.11234       46.07831       82.70595
H         13.95051       46.16285       82.71410
H         12.56509       44.14751       82.38859
H         13.87953       44.27931       81.18725
H         13.02192       43.14449       79.34315
H         11.44551       43.53164       78.63855
N         12.77577       48.07173       80.32042
C         13.17951       48.97297       79.25174
C         12.42610       48.72592       77.96435
O         12.63444       49.48582       77.02906
H         11.82667       48.19200       80.69800
H         14.26044       48.87221       79.01536
H         13.00861       50.01617       79.59514
N         11.58610       47.65958       77.81163
C         10.91097       47.34715       76.56199
C          9.38804       47.30838       76.81072
O          9.13933       46.18198       77.60415
C         11.38955       45.97134       76.01207
C         12.84407       45.90505       75.61339
C         13.87318       46.03502       76.56319
C         13.18301       45.66324       74.27053
C         15.21179       45.93877       76.17260
C         14.52061       45.56348       73.88352
C         15.54066       45.70228       74.83401
O         16.83579       45.60284       74.47402
H         11.43963       47.00886       78.59561
H         11.11889       48.12342       75.79343
H         10.76811       45.72888       75.12273
H         11.21195       45.17089       76.76075
H         13.65030       46.19611       77.60802
H         12.41166       45.54448       73.51936
H         15.99412       46.03984       76.91415
H         14.76092       45.37327       72.84517
H         17.10222       45.43079       73.55951
N          8.68912       47.18359       75.52211
C          7.21736       47.08274       75.56819
C          6.83677       45.95836       74.63170
O          7.20327       45.99611       73.46392
C          6.50318       48.41927       75.16777
C          6.82355       49.52725       76.20255
C          4.97282       48.21129       75.05919
C          6.25635       50.90390       75.84167
H          8.99635       47.91648       74.83985
H          6.86631       46.81482       76.58605
H          6.87229       48.73478       74.16632
H          7.92367       49.64602       76.28426
H          6.42777       49.22586       77.19654
H          4.72717       47.43751       74.30350
H          4.54538       47.90325       76.03647
H          4.45855       49.13012       74.71527
H          6.64783       51.23490       74.85648
H          5.14815       50.90299       75.81711
H          6.56468       51.64132       76.61238
N          6.05660       44.93896       75.08172
C          5.61547       43.82871       74.25460
C          4.15694       43.99495       73.88717
O          3.51407       44.94165       74.32606
C          5.80828       42.50658       75.02217
O          7.15394       42.33253       75.36089
H          5.70902       44.98389       76.04690
H          6.19352       43.79638       73.30452
H          5.48109       41.64268       74.40557
H          5.18408       42.54059       75.94691
H          7.17113       41.62538       76.05875
N          3.57094       43.09558       73.05561
C          2.16598       43.13367       72.68172
C          1.27854       42.94362       73.89879
O          0.33391       43.69804       74.06659
C          1.86855       42.03069       71.66079
H          4.15915       42.33850       72.66990
H          1.93180       44.10322       72.18516
H          2.49730       42.17789       70.75594
H          2.08324       41.02653       72.08447
H          0.80220       42.07389       71.35251
N          1.52526       41.93298       74.78300
C          0.65984       41.63567       75.92663
C          0.55296       42.75482       76.95742
O         -0.28785       42.63299       77.84219
C          1.16690       40.37384       76.63713
H          2.33797       41.32342       74.60579
H         -0.35709       41.43686       75.52512
H          1.21520       39.52462       75.92380
H          2.18693       40.55192       77.04591
H          0.49254       40.09269       77.47339
N          1.37374       43.83949       76.95266
C          1.31273       44.91171       77.94662
C          1.10241       46.28254       77.30624
O          0.99327       47.25244       78.03996
C          2.58262       44.88649       78.82966
C          3.85391       45.04696       78.00496
C          5.09336       44.98224       78.82392
O          5.92481       44.11693       78.59394
O          5.41157       45.99599       79.63883
H          2.10271       43.88832       76.22918
H          0.45400       44.75350       78.63506
H          2.62923       43.90758       79.35597
H          2.52748       45.68779       79.59988
H          3.84781       46.01819       77.46501
H          3.91686       44.22880       77.26527
N          1.02251       46.44698       75.95220
C          0.79544       47.73754       75.34186
H         -0.17862       48.14827       75.68136
H          1.61519       48.43700       75.60749
H          0.76482       47.62745       74.23575
H          1.11565       45.64831       75.31974
Ca         7.47614       46.56040       79.06050
O          9.21718       43.09776       77.34555
H          8.42135       43.67623       77.23736
H          9.71438       43.19424       76.49512
O          8.32280       42.45814       80.21894
H          8.98817       42.05813       80.83321
H          8.18985       41.77066       79.51922

Ca 1.0



