%chk=holoCaM-CaMKII.loop4.water2.frame247.chk
%nprocshared=20
%mem=10GB
%nosave
#b3lyp/svp scf=(tight,noincore,xqc) Test 
#IOP(5/87=12) Density=Current Pop=(MK,readradii) iop(6/33=2) iop(6/42=6)

holoCaM-CaMKII.loop4.water2.frame247 

   -3  1 
C         90.15219       90.95853       61.70070
C         88.89982       91.02958       62.52193
O         88.49332       92.11430       62.90222
H         90.90495       90.33314       62.22557
H         89.92435       90.50287       60.71405
H         90.57776       91.97159       61.53872
N         88.22464       89.88969       62.82204
C         86.99610       89.85564       63.60944
C         87.24711       90.31617       65.04179
O         88.10658       89.74510       65.69900
C         86.43878       88.42048       63.59509
C         85.16819       88.31152       64.37126
O         85.08964       87.44973       65.40040
O         84.20713       89.00103       64.07577
H         88.59989       89.00297       62.44831
H         86.23774       90.51014       63.12304
H         87.18697       87.71516       64.01936
H         86.23326       88.12087       62.54393
N         86.51061       91.33290       65.59063
C         86.72123       91.84692       66.94922
C         85.48133       91.64339       67.84124
O         85.60172       91.83944       69.04125
C         87.12169       93.36910       66.90537
C         88.13905       93.65975       65.76953
C         87.68121       93.85172       68.26293
C         88.50525       95.13882       65.60898
H         85.78837       91.76970       65.00667
H         87.55889       91.27936       67.40960
H         86.20897       93.95909       66.66899
H         87.66677       93.37228       64.81171
H         89.06567       93.06287       65.90932
H         86.95752       93.73365       69.08748
H         88.61057       93.29760       68.51547
H         87.90575       94.93577       68.24389
H         87.59009       95.75354       65.48121
H         89.08168       95.51486       66.47688
H         89.14202       95.26474       64.70781
N         84.25708       91.28056       67.34394
C         83.05199       91.16681       68.17594
C         82.45296       89.75933       68.17100
O         81.40155       89.56382       68.76504
C         82.02776       92.25506       67.77872
C         81.45296       92.17170       66.39113
O         80.55502       93.09826       66.00742
O         81.76894       91.28433       65.61576
H         84.14935       91.11681       66.33517
H         83.29191       91.38277       69.23991
H         82.51841       93.24739       67.88906
H         81.17826       92.22218       68.49513
N         83.11283       88.71319       67.60331
C         82.67581       87.32828       67.68438
C         81.48784       86.99636       66.81272
O         80.54830       86.38001       67.29396
H         84.03045       88.87934       67.17091
H         82.50354       87.03611       68.74335
H         83.50306       86.69246       67.30562
N         81.50520       87.31710       65.49077
C         80.53162       86.83599       64.51167
C         81.22676       86.19993       63.28956
O         80.52027       85.80978       62.37039
C         79.51924       87.94417       64.10807
C         80.10988       89.15549       63.45717
O         79.38987       90.01036       62.96740
O         81.43504       89.29429       63.41247
H         82.27930       87.90541       65.16296
H         79.89904       86.04060       64.96357
H         78.94511       88.27271       65.00041
H         78.79895       87.49154       63.39149
N         82.58537       86.00861       63.21854
C         83.24178       85.34906       62.09203
C         83.29547       86.17226       60.81549
O         83.67003       85.61841       59.79190
H         83.18288       86.25262       64.01722
H         82.71900       84.38726       61.89842
H         84.29373       85.10613       62.35837
N         82.96981       87.49432       60.79594
C         82.92824       88.31540       59.58880
C         83.99616       89.44616       59.64168
O         84.36023       89.90133       60.91394
C         81.47869       88.82052       59.39920
C         80.52696       87.64806       59.09811
C         79.10013       88.11171       58.97196
N         78.41833       87.95601       57.81260
O         78.54738       88.62244       59.93475
H         82.70778       87.95041       61.67823
H         83.18082       87.73074       58.67668
H         81.41975       89.51919       58.53719
H         81.14647       89.35614       60.31132
H         80.56963       86.89014       59.90688
H         80.85558       87.15955       58.15374
H         78.86301       87.52747       56.98767
H         77.43835       88.26702       57.73788
N         83.73521       90.54541       58.69987
C         84.61319       91.72626       58.83844
C         83.90564       92.88976       58.16493
O         83.61629       92.79150       56.97996
C         86.03880       91.52289       58.22010
C         86.92650       92.74347       58.52917
C         86.76376       90.26752       58.73478
H         83.75093       90.18416       57.71725
H         84.73615       91.97948       59.91313
H         85.94724       91.41738       57.11648
H         87.06214       92.85137       59.62744
H         87.92903       92.62336       58.06639
H         86.48193       93.67769       58.13125
H         86.86854       90.29098       59.84085
H         86.22954       89.34673       58.42648
H         87.77744       90.19898       58.28530
N         83.61924       94.03402       58.85441
C         82.98411       95.19829       58.23713
C         84.00396       96.31046       58.08980
O         85.17051       96.08033       58.36980
C         81.69131       95.63693       58.97861
C         81.87355       96.44181       60.24799
N         82.41736       95.91195       61.36191
O         81.48550       97.60081       60.27161
H         83.93327       94.10463       59.83003
H         82.65242       94.93913       57.20835
H         81.04164       94.75660       59.16602
H         81.12892       96.29109       58.27666
H         82.71581       94.93289       61.39060
H         82.51424       96.48514       62.21383
N         83.65323       97.52959       57.59745
C         84.62937       98.58761       57.36909
C         85.29603       99.06350       58.65737
O         86.49252       99.31207       58.62631
C         83.98866       99.76242       56.60468
C         85.03014      100.73674       56.10123
C         86.02709      100.30603       55.20376
C         85.01309      102.07942       56.50821
C         86.99259      101.19763       54.73413
C         85.97930      102.97260       56.03163
C         86.97358      102.53269       55.14428
O         87.91143      103.38122       54.67787
H         82.67181       97.69244       57.32810
H         85.41081       98.15869       56.70551
H         83.23704      100.26014       57.25629
H         83.45622       99.36745       55.71155
H         86.06167       99.27919       54.86247
H         84.25335      102.43564       57.19210
H         87.75484      100.84872       54.04813
H         85.95416      104.00586       56.35223
H         87.93366      104.31435       54.93237
N         84.60036       99.21916       59.82511
C         85.24195       99.66158       61.06984
C         86.28880       98.67807       61.60316
O         86.96259       99.03267       62.56068
C         84.20904       99.90297       62.19685
C         83.23009      101.04229       61.88703
C         82.32637      101.29083       63.06293
O         82.84810      101.65048       64.25256
O         81.11691      101.17890       62.94545
H         83.58837       99.03052       59.81916
H         85.75936      100.62543       60.86474
H         84.75998      100.18939       63.12118
H         83.65040       98.96284       62.40552
H         82.62268      100.79336       60.99162
H         83.79778      101.97549       61.68270
N         86.48127       97.43960       61.06224
C         87.46111       96.47879       61.56367
C         88.55162       96.19496       60.53544
O         89.48475       95.47770       60.87009
C         86.75328       95.16232       61.94878
C         85.57142       95.39560       62.89881
C         84.88055       94.11562       63.26629
O         84.66626       93.82445       64.56055
O         84.46331       93.36094       62.40209
H         85.89480       97.14284       60.28277
H         87.96463       96.88639       62.46720
H         87.48765       94.47414       62.41813
H         86.36007       94.68469       61.02406
H         84.83408       96.04453       62.39136
H         85.90860       95.91196       63.82079
N         88.51164       96.71698       59.27374
C         89.53682       96.50446       58.27433
H         90.37836       95.88878       58.65168
H         89.08967       95.99946       57.39240
H         89.93734       97.48971       57.95305
H         87.72041       97.29484       58.97790
Ca        82.57745       90.61139       62.06288
O         80.78482       92.28940       60.28111
H         80.18043       91.59497       59.91801
H         80.22046       92.79814       60.91533
O         81.50311       93.71455       63.33122
H         80.73302       93.09316       63.33044
H         81.11181       94.59657       63.55402

Ca 1.0



