%chk=holoCaM-CaMKII.loop3.water1.frame474.chk
%nprocshared=20
%mem=10GB
%nosave
#b3lyp/svp scf=(tight,noincore,xqc) Test 
#IOP(5/87=12) Density=Current Pop=(MK,readradii) iop(6/33=2) iop(6/42=6)

holoCaM-CaMKII.loop3.water1.frame474 

   0  1 
C         81.31617       55.44531       60.03259
C         82.38987       55.21105       59.01435
O         83.54881       55.45280       59.31944
H         80.31591       55.17002       59.63738
H         81.52390       54.83355       60.93458
H         81.30292       56.51957       60.31289
N         82.07263       54.76989       57.76477
C         83.06327       54.54443       56.71975
C         82.90210       55.65036       55.66803
O         82.01205       56.47867       55.81291
C         82.85983       53.10462       56.17652
C         83.99667       52.51342       55.38547
O         83.82713       51.45679       54.79915
O         85.19772       53.11151       55.31198
H         81.07903       54.62430       57.52503
H         84.08483       54.62750       57.15029
H         81.93492       53.10453       55.55846
H         82.69668       52.40219       57.02068
N         83.75649       55.76671       54.61624
C         83.73656       56.86399       53.65789
C         83.41597       56.33572       52.27076
O         82.49831       56.85164       51.64790
C         85.08226       57.60851       53.76736
C         85.15407       58.86468       52.88724
C         86.30907       59.77510       53.33398
C         86.37512       61.05196       52.48508
N         87.34255       61.99998       53.03896
H         84.50778       55.08632       54.50802
H         82.94932       57.60627       53.92099
H         85.94377       56.94007       53.54648
H         85.16214       57.92751       54.83144
H         84.21476       59.44715       53.00732
H         85.25806       58.56936       51.82027
H         87.28187       59.23858       53.28106
H         86.12386       60.06597       54.39225
H         85.37590       61.54113       52.46480
H         86.65793       60.78705       51.44215
H         87.03860       62.29647       53.99578
H         88.29328       61.56842       53.09025
H         87.38159       62.84715       52.42733
N         84.06854       55.25233       51.76274
C         83.72976       54.62561       50.48432
C         82.94787       53.32216       50.68673
O         82.54729       52.73029       49.69410
C         85.02221       54.45436       49.63817
C         86.05512       53.56655       50.28943
O         87.20226       53.53286       49.87739
O         85.68221       52.78368       51.30947
H         84.79043       54.80815       52.34429
H         83.04600       55.28867       49.90955
H         85.46388       55.46795       49.52945
H         84.79489       54.06654       48.62186
N         82.64457       52.84049       51.93400
C         81.80511       51.67090       52.16246
C         82.37388       50.37891       51.61666
O         81.59280       49.48522       51.32066
H         82.96710       53.34227       52.77222
H         80.80722       51.85536       51.70794
H         81.63583       51.53067       53.25168
N         83.71389       50.20054       51.44166
C         84.27055       48.98689       50.85330
C         84.23549       47.80250       51.81288
O         84.48902       46.69023       51.37325
C         85.70593       49.21981       50.33691
C         86.72980       49.31380       51.43958
N         87.76615       48.44999       51.48364
O         86.62611       50.16655       52.30370
H         84.33923       50.96893       51.68702
H         83.65627       48.76366       49.95237
H         85.72904       50.14684       49.72311
H         85.97900       48.37422       49.66986
H         87.88629       47.71618       50.77044
H         88.45386       48.52555       52.23997
N         83.96983       47.97417       53.14167
C         83.88790       46.88541       54.09737
C         84.84384       47.03323       55.26359
O         84.65534       46.29324       56.22094
H         83.78816       48.91727       53.51215
H         84.03948       45.88863       53.63011
H         82.85578       46.90604       54.50863
N         85.89370       47.91505       55.27954
C         86.74876       48.07675       56.45736
C         86.94628       49.53518       56.84363
O         86.52560       50.42930       56.11990
C         88.07231       47.28013       56.31522
C         89.03715       47.65609       55.20817
C         89.65391       48.92004       55.16083
C         89.38963       46.69364       54.24235
C         90.59741       49.21206       54.16827
C         90.33731       46.98526       53.25645
C         90.94493       48.24772       53.21595
O         91.85990       48.54322       52.27032
H         86.11071       48.46487       54.43430
H         86.24153       47.61969       57.33585
H         87.78284       46.21280       56.19656
H         88.63545       47.34078       57.26970
H         89.42733       49.67821       55.89571
H         88.94434       45.70673       54.25866
H         91.06766       50.18717       54.14519
H         90.59850       46.22907       52.52644
H         92.12644       47.90345       51.59425
N         87.58840       49.83118       58.00868
C         87.87279       51.17344       58.50176
C         89.38227       51.32667       58.58418
O         90.03699       50.48498       59.18761
C         87.22168       51.38232       59.90395
C         85.68000       51.19839       59.89188
C         87.59771       52.75201       60.50989
C         84.90374       52.25166       59.09663
H         87.91146       49.04628       58.59656
H         87.46968       51.95031       57.81612
H         87.62561       50.60044       60.58542
H         85.31166       51.23534       60.94070
H         85.43037       50.19320       59.49064
H         87.27894       53.58869       59.85321
H         87.12696       52.87488       61.50842
H         88.69429       52.83335       60.65153
H         83.81782       52.03055       59.16236
H         85.05967       53.26425       59.51933
H         85.19928       52.24800       58.03022
N         89.99468       52.41275       58.04048
C         91.43420       52.64629       58.09023
C         91.75360       53.74286       59.09081
O         90.84517       54.23551       59.73779
C         91.93394       53.00050       56.67935
O         91.33331       54.19085       56.23573
H         89.40360       53.14175       57.61685
H         91.96867       51.73269       58.43084
H         91.67876       52.18217       55.97260
H         93.04372       53.09715       56.69409
H         92.03891       54.73894       55.80327
N         93.03364       54.15004       59.30905
C         93.38066       55.20491       60.25861
C         92.81751       56.54944       59.82254
O         92.11218       57.17957       60.59687
C         94.90238       55.31177       60.40160
H         93.79251       53.67861       58.79259
H         92.98425       54.93811       61.26500
H         95.31321       54.34269       60.75725
H         95.38149       55.56735       59.43317
H         95.15962       56.09287       61.14916
N         93.10103       57.04542       58.58354
C         92.64294       58.34593       58.09354
C         91.13350       58.46971       58.16073
O         90.63580       59.42696       58.73686
C         93.11074       58.54907       56.64572
H         93.67399       56.46108       57.95502
H         93.09832       59.15276       58.70987
H         92.78682       59.54351       56.27120
H         94.21944       58.50072       56.59495
H         92.69318       57.76294       55.97969
N         90.34739       57.50437       57.61721
C         88.88556       57.50768       57.66296
C         88.39519       57.63180       59.09525
O         87.59336       58.51078       59.37852
C         88.35048       56.20620       57.03067
C         88.63876       56.15269       55.51768
C         88.27765       54.83248       54.90433
O         87.82425       53.81515       55.66095
O         88.43408       54.66687       53.70550
H         90.82927       56.69968       57.18965
H         88.48264       58.36848       57.08339
H         87.24935       56.13145       57.17341
H         88.82605       55.34748       57.54966
H         89.71485       56.31679       55.30854
H         88.06054       56.95994       55.01881
N         88.86891       56.80323       60.05906
C         88.46217       56.88567       61.44294
H         87.37757       56.66950       61.53150
H         89.02623       56.13937       62.04373
H         88.68095       57.89785       61.84458
H         89.56984       56.10834       59.80110
Ca        86.34873       52.66320       53.44108
O         89.26075       51.61329       52.24140
H         88.65759       52.04021       51.58322
H         90.05747       51.35459       51.71403

Ca 1.0



