%chk=holoCaM-CaMKII.loop4.water2.frame40.chk
%nprocshared=20
%mem=10GB
%nosave
#b3lyp/svp scf=(tight,noincore,xqc) Test 
#IOP(5/87=12) Density=Current Pop=(MK,readradii) iop(6/33=2) iop(6/42=6)

holoCaM-CaMKII.loop4.water2.frame40 

   -3  1 
C         -0.99431       70.57388        0.28938
C         -0.52077       70.08964       -1.04819
O          0.19197       70.80964       -1.73096
H         -2.06499       70.30873        0.41852
H         -0.40394       70.09768        1.10033
H         -0.90001       71.67760        0.36207
N         -0.89474       68.85852       -1.48806
C         -0.53927       68.33018       -2.79491
C         -1.40306       69.01465       -3.85255
O         -2.61390       68.85051       -3.86637
C         -0.65424       66.79218       -2.74382
C         -0.44467       66.09150       -4.03938
O         -1.25480       65.25081       -4.37873
O          0.56080       66.43394       -4.86210
H         -1.50606       68.29245       -0.88067
H          0.54060       68.54210       -2.98593
H         -1.66537       66.51416       -2.38247
H          0.09528       66.41591       -2.01726
N         -0.81075       69.87414       -4.71969
C         -1.48658       70.71213       -5.70761
C         -1.77884       69.91374       -6.96774
O         -2.93133       69.86235       -7.37616
C         -0.61144       72.00003       -5.93713
C         -0.83011       73.04709       -4.80397
C         -0.74369       72.65342       -7.31981
C         -2.19481       73.76201       -4.83587
H          0.19574       70.00874       -4.59191
H         -2.46975       71.05057       -5.32219
H          0.45601       71.70408       -5.90675
H         -0.05129       73.83311       -4.90325
H         -0.69576       72.57069       -3.80793
H         -0.09537       73.55769       -7.36515
H         -0.37178       71.95773       -8.10118
H         -1.78887       72.92940       -7.55086
H         -2.21299       74.55965       -4.06386
H         -2.36880       74.25791       -5.81316
H         -3.03836       73.07362       -4.62937
N         -0.78205       69.29557       -7.65651
C         -0.99767       68.60304       -8.92768
C         -1.61785       67.20882       -8.75447
O         -2.04929       66.63459       -9.74397
C          0.28294       68.70211       -9.80191
C          1.52896       68.15195       -9.15915
O          2.63271       68.55479       -9.49532
O          1.40129       67.22197       -8.20029
H          0.17073       69.38375       -7.29042
H         -1.75487       69.18679       -9.49627
H          0.44856       69.79669       -9.93128
H          0.14206       68.26366      -10.81011
N         -1.79220       66.65577       -7.51910
C         -2.58483       65.45942       -7.25040
C         -1.93918       64.16697       -7.69964
O         -2.63773       63.27604       -8.16242
H         -1.41222       67.14464       -6.69659
H         -3.62104       65.57226       -7.63176
H         -2.69819       65.38055       -6.15691
N         -0.61346       63.97017       -7.47203
C          0.12819       62.74011       -7.76952
C          0.40234       61.91905       -6.51569
O          0.78599       60.76456       -6.64782
C          1.44715       63.08168       -8.50763
C          2.33805       64.06275       -7.77615
O          3.31052       64.53638       -8.33855
O          2.08486       64.42571       -6.50998
H         -0.12268       64.75235       -7.02854
H         -0.49448       62.08528       -8.42249
H          1.17998       63.52868       -9.48606
H          2.04385       62.16161       -8.69301
N          0.19484       62.43477       -5.27294
C          0.29565       61.68164       -4.03945
C          1.28354       62.25190       -3.04460
O          1.28079       61.75358       -1.92829
H         -0.09541       63.40793       -5.18394
H          0.54403       60.61382       -4.21792
H         -0.70670       61.72122       -3.56180
N          2.17891       63.24322       -3.34318
C          3.12449       63.75155       -2.34809
C          3.24062       65.26173       -2.36971
O          2.75591       65.90423       -3.28950
C          4.50871       63.09062       -2.52457
C          4.45432       61.59228       -2.18557
C          5.81353       60.94476       -2.23558
N          5.96989       59.72360       -2.79604
O          6.77425       61.50100       -1.72375
H          2.24178       63.59738       -4.30395
H          2.75030       63.51894       -1.32939
H          5.21839       63.55862       -1.80840
H          4.89835       63.24903       -3.55277
H          3.75953       61.05616       -2.86723
H          4.07203       61.49154       -1.14740
H          5.16175       59.21045       -3.17746
H          6.89494       59.26965       -2.80817
N          3.89886       65.89132       -1.34962
C          4.07599       67.33234       -1.27347
C          5.55367       67.60485       -1.48406
O          6.38961       67.13328       -0.72479
C          3.56790       67.92284        0.07646
C          3.50805       69.46404        0.02376
C          2.17163       67.40777        0.45534
H          4.31311       65.31988       -0.59806
H          3.48498       67.81698       -2.08149
H          4.26581       67.60689        0.88213
H          2.75092       69.79556       -0.72197
H          3.20588       69.87212        1.01242
H          4.48513       69.90905       -0.24952
H          1.88730       67.80213        1.45557
H          1.41036       67.73262       -0.28326
H          2.16524       66.30076        0.52164
N          5.92780       68.33584       -2.55714
C          7.28046       68.69454       -2.92250
C          7.68626       69.91049       -2.13076
O          6.86602       70.47675       -1.43071
C          7.27355       68.97474       -4.45853
C          8.54962       69.49897       -5.06365
N          9.72739       68.86421       -4.88047
O          8.51530       70.51888       -5.73549
H          5.18680       68.73946       -3.11578
H          7.97153       67.85070       -2.69911
H          6.47219       69.71553       -4.68985
H          7.00872       68.02826       -4.97433
H          9.78112       68.01416       -4.30246
H         10.59571       69.26620       -5.26303
N          8.95311       70.37585       -2.20941
C          9.40617       71.61910       -1.62149
C          8.60193       72.80657       -2.14767
O          8.23514       73.66602       -1.35932
C         10.90665       71.78364       -1.95095
C         11.46128       73.02687       -1.33088
C         11.42350       73.18276        0.06233
C         11.99950       74.04375       -2.13234
C         11.89282       74.35430        0.64899
C         12.47348       75.21545       -1.54220
C         12.41125       75.37825       -0.14976
O         12.83879       76.51633        0.42745
H          9.64077       69.81818       -2.72399
H          9.27841       71.56370       -0.51960
H         11.04141       71.79940       -3.05696
H         11.47227       70.91136       -1.55480
H         11.01722       72.40159        0.69292
H         12.04175       73.93682       -3.21030
H         11.84080       74.46480        1.72408
H         12.87976       75.99888       -2.16806
H         13.16373       77.25988       -0.09885
N          8.32433       72.93417       -3.47363
C          7.59362       74.06410       -4.04269
C          6.11847       74.07059       -3.65919
O          5.55769       75.14788       -3.50958
C          7.80048       74.13591       -5.56814
C          9.28614       74.41615       -5.87635
C          9.51111       74.69471       -7.33017
O          9.88978       75.92738       -7.72078
O          9.35864       73.81577       -8.16233
H          8.67935       72.20990       -4.10558
H          8.03242       75.00104       -3.63475
H          7.20668       74.98889       -5.96349
H          7.45143       73.20337       -6.06680
H          9.94231       73.57842       -5.55047
H          9.58971       75.32311       -5.31031
N          5.42786       72.91370       -3.46566
C          4.06813       72.87543       -2.91885
C          4.10357       73.14846       -1.41612
O          3.08776       73.51751       -0.84389
C          3.44814       71.48921       -3.19202
C          3.35309       71.25983       -4.71042
C          2.93781       69.87949       -5.08685
O          2.07130       69.72122       -5.92028
O          3.59526       68.81062       -4.62584
H          5.91565       72.02145       -3.63378
H          3.43372       73.63835       -3.42716
H          2.44081       71.40041       -2.73719
H          4.10440       70.72258       -2.72827
H          4.34186       71.41209       -5.18094
H          2.64343       71.99314       -5.14932
N          5.25506       72.93803       -0.71733
C          5.44050       73.11825        0.70245
H          6.27591       73.83395        0.85848
H          4.53132       73.49309        1.20982
H          5.73866       72.14460        1.15059
H          6.07527       72.60494       -1.21722
Ca         2.28646       67.03618       -6.16727
O          4.92033       67.86989       -7.45947
H          5.66908       67.48652       -7.98189
H          5.25941       68.74063       -7.13377
O          4.96128       65.45901       -5.43388
H          5.55729       66.14037       -5.82911
H          5.47815       64.61948       -5.51092

Ca 1.0



