%chk=holoCaM.loop2.water2.frame297.chk
%nprocshared=20
%mem=10GB
%nosave
#b3lyp/svp scf=(tight,noincore,xqc) Test 
#IOP(5/87=12) Density=Current Pop=(MK,readradii) iop(6/33=2) iop(6/42=6)

holoCaM.loop2.water2.frame297 

   -2  1 
C         37.52367       21.08489       51.01233
C         36.24236       20.58541       50.41399
O         35.27152       21.32507       50.35389
H         38.32567       21.03690       50.24347
H         37.42344       22.13716       51.35120
H         37.81235       20.44669       51.87273
N         36.19185       19.32696       49.90553
C         35.03626       18.79549       49.19736
C         33.84443       18.59201       50.13378
O         33.98025       17.86457       51.10766
C         35.42634       17.45014       48.53820
C         34.44882       16.99985       47.49669
O         34.61119       15.93389       46.92630
O         33.44467       17.80314       47.12030
H         37.04931       18.75423       49.95979
H         34.79168       19.51225       48.38060
H         35.54238       16.67081       49.32208
H         36.39720       17.55980       48.00937
N         32.63535       19.16989       49.87106
C         31.43273       18.96289       50.68311
C         30.31653       18.26100       49.90243
O         29.25710       18.03697       50.47160
C         30.92929       20.32664       51.17407
H         32.55487       19.76873       49.03826
H         31.66123       18.33452       51.57053
H         30.03204       20.20690       51.81913
H         31.71758       20.83824       51.76501
H         30.65703       20.97302       50.31033
N         30.46743       17.92606       48.58989
C         29.41580       17.39416       47.73211
C         29.84815       16.11082       47.02302
O         29.16362       15.10840       47.17494
C         28.95020       18.50826       46.74907
C         30.03724       19.47110       46.31184
O         31.09516       19.07904       45.58343
O         29.98394       20.63269       46.68357
H         31.35221       18.13991       48.12880
H         28.51049       17.12444       48.32324
H         28.22688       19.13277       47.32023
H         28.39137       18.08009       45.88919
N         30.93788       16.07007       46.20715
C         31.32548       14.92379       45.39926
C         31.30360       15.25331       43.91051
O         31.63763       14.38157       43.12121
H         31.52253       16.89912       46.12001
H         30.65214       14.05758       45.57274
H         32.35463       14.61998       45.68844
N         30.90487       16.47829       43.44816
C         30.80865       16.84747       42.03544
C         32.15032       16.92548       41.28423
O         32.12027       17.25678       40.10668
C         30.02787       18.18412       41.89643
C         30.70127       19.40289       42.47728
N         30.10575       20.61000       42.37175
O         31.77903       19.31539       43.03974
H         30.57287       17.17206       44.12643
H         30.17790       16.08361       41.53014
H         29.03810       18.07289       42.39311
H         29.84310       18.38051       40.81945
H         29.19331       20.71276       41.90632
H         30.56481       21.44675       42.74841
N         33.35129       16.61415       41.85926
C         34.61817       16.62313       41.13260
C         35.21981       18.00270       40.89376
O         36.28416       18.06130       40.29514
H         33.37869       16.26942       42.82414
H         34.49114       16.08079       40.16857
H         35.36732       16.06040       41.72852
N         34.61224       19.14748       41.31506
C         35.12223       20.49545       41.07383
C         35.12872       21.35204       42.33419
O         34.14419       21.38233       43.05735
C         34.23806       21.20673       40.02136
C         34.50294       20.65859       38.61995
O         32.87140       21.06482       40.31961
H         33.70613       19.07273       41.77815
H         36.15595       20.47829       40.66110
H         34.51001       22.28832       39.96919
H         32.65830       21.70417       41.04618
H         34.27579       19.57462       38.56248
H         33.87686       21.20300       37.88240
H         35.57008       20.82115       38.34985
N         36.16153       22.21954       42.54234
C         36.13797       23.29913       43.53220
C         34.96046       24.22413       43.23801
O         34.84959       24.71675       42.12283
C         37.48430       24.10417       43.48010
C         38.64248       23.22089       44.01685
C         37.40500       25.42797       44.27722
C         40.03323       23.82379       43.80039
H         36.96237       22.17552       41.89349
H         36.03005       22.88405       44.55887
H         37.68340       24.37511       42.41843
H         38.64129       22.24022       43.49816
H         38.48915       23.03029       45.10258
H         37.18096       25.23784       45.34791
H         38.34436       26.00924       44.19859
H         36.62327       26.09275       43.85671
H         40.21724       23.97255       42.71522
H         40.16116       24.78789       44.33044
H         40.80027       23.12497       44.19561
N         34.09885       24.57057       44.23781
C         33.04774       25.57584       44.09746
C         33.50616       26.86533       44.75083
O         34.59110       26.88606       45.30801
C         31.74785       25.10448       44.78186
C         31.23011       23.81348       44.23555
O         31.96290       22.69315       44.35399
O         30.12279       23.76343       43.72486
H         34.27274       24.19260       45.17788
H         32.85616       25.79263       43.02347
H         30.96464       25.88165       44.65376
H         31.92739       24.96645       45.87165
N         32.75557       27.99999       44.70277
C         33.17849       29.24309       45.33978
C         33.22097       29.10764       46.86661
O         34.26836       29.40732       47.41722
C         32.32596       30.43722       44.86006
C         32.79567       31.75292       45.44067
C         34.10502       32.21852       45.21055
C         31.91963       32.53486       46.21260
C         34.52616       33.43821       45.74833
C         32.34441       33.75609       46.74432
C         33.64643       34.20692       46.51358
H         31.87164       27.98649       44.16934
H         34.20906       29.46804       44.98342
H         31.25909       30.28082       45.09046
H         32.40362       30.50189       43.75291
H         34.80255       31.64338       44.61567
H         30.90685       32.20180       46.40154
H         35.53468       33.78875       45.56932
H         31.66270       34.35378       47.33496
H         33.97307       35.15266       46.92609
N         32.17015       28.64240       47.62624
C         32.24112       28.42106       49.07235
C         33.49702       27.68474       49.50209
O         34.16620       28.09977       50.43803
C         31.01673       27.52769       49.35163
C         30.02103       28.04551       48.34858
C         30.89020       28.20011       47.10592
H         32.14379       29.39628       49.59821
H         31.22245       26.47373       49.05139
H         30.67742       27.51995       50.40917
H         29.11757       27.41538       48.20013
H         29.70387       29.05704       48.68905
H         31.03534       27.22961       46.59081
H         30.38777       28.92274       46.44244
N         33.86175       26.56705       48.82584
C         35.00559       25.71743       49.13951
C         36.29781       26.50281       49.00322
O         37.10128       26.49268       49.92473
C         34.95730       24.46007       48.23058
C         33.65747       23.67856       48.54646
C         33.32077       22.50306       47.69005
O         34.08656       22.05394       46.68058
O         32.26445       21.93582       47.91206
H         33.27652       26.31628       48.01475
H         34.92871       25.34857       50.18751
H         35.83375       23.80232       48.41830
H         34.98182       24.78270       47.17205
H         32.77233       24.33316       48.44580
H         33.69452       23.33816       49.60264
N         36.53061       27.26584       47.90360
C         37.70676       28.09035       47.74626
H         38.61469       27.45513       47.70837
H         37.63267       28.66949       46.79955
H         37.78064       28.81101       48.58861
H         35.82364       27.30263       47.16923
Ca        32.96959       20.34359       45.70963
O         34.76211       18.10851       44.27248
H         35.63015       17.63536       44.32066
H         34.10511       17.45588       44.61988
O         36.15582       20.01360       45.94414
H         36.85621       19.41206       46.30039
H         36.49509       20.92520       46.12511

Ca 1.0



