%chk=holoCaM.loop3.water2.frame54.chk
%nprocshared=20
%mem=10GB
%nosave
#b3lyp/svp scf=(tight,noincore,xqc) Test 
#IOP(5/87=12) Density=Current Pop=(MK,readradii) iop(6/33=2) iop(6/42=6)

holoCaM.loop3.water2.frame54 

   0  1 
C         93.25907        2.02675       40.61774
C         92.88268        3.24167       41.40737
O         93.11154        3.25232       42.60669
H         94.35242        1.85645       40.69908
H         92.72021        1.14624       41.02776
H         92.99037        2.14025       39.54701
N         92.30075        4.31536       40.80415
C         91.88349        5.49410       41.55131
C         90.78199        5.09272       42.51964
O         89.71687        4.68983       42.07092
C         91.42550        6.58931       40.56897
C         90.99665        7.84221       41.26222
O         91.84460        8.50198       42.07040
O         89.87773        8.27997       41.07543
H         92.15325        4.28848       39.78297
H         92.76454        5.88644       42.10735
H         90.59095        6.20707       39.93855
H         92.27271        6.84439       39.89721
N         91.00040        5.11187       43.86744
C         90.04077        4.55819       44.81964
C         89.00290        5.57686       45.26074
O         88.08646        5.17827       45.96695
C         90.76501        3.96350       46.05425
C         91.80202        2.86833       45.72523
C         91.19152        1.62845       45.04950
C         92.26358        0.56946       44.75364
N         91.67332       -0.60777       44.11607
H         91.92898        5.40194       44.21057
H         89.48125        3.73285       44.33027
H         90.01437        3.53082       46.75199
H         91.29083        4.78554       46.58833
H         92.27730        2.55043       46.67917
H         92.59978        3.29349       45.08446
H         90.71987        1.91118       44.08612
H         90.41723        1.19237       45.71803
H         92.76302        0.26282       45.69920
H         93.03339        1.00094       44.07659
H         92.42899       -1.29860       43.90380
H         90.97829       -1.05312       44.75838
H         91.20370       -0.33722       43.22125
N         89.06449        6.89401       44.89966
C         88.05499        7.87354       45.29727
C         87.34476        8.47480       44.07210
O         86.49483        9.33506       44.25396
C         88.69853        8.91969       46.24198
C         89.64098        9.82912       45.53149
O         89.20276       10.58145       44.68130
O         90.95915        9.85010       45.78733
H         89.85449        7.23026       44.32890
H         87.26427        7.38499       45.90607
H         89.23056        8.38080       47.05644
H         87.91127        9.55133       46.70614
N         87.59181        8.02086       42.80275
C         86.85069        8.44749       41.62133
C         87.14100        9.84498       41.09383
O         86.46687       10.22243       40.14493
H         88.24987        7.24281       42.66409
H         85.76429        8.35090       41.83727
H         87.08078        7.74981       40.78640
N         88.08940       10.67842       41.61763
C         88.24700       12.05365       41.13709
C         88.77371       12.14388       39.70265
O         88.55180       13.16423       39.06688
C         89.09699       12.92438       42.09644
C         90.61925       12.78291       41.93199
N         91.35045       13.62248       42.86924
O         91.07422       11.46293       41.97515
H         88.64748       10.35616       42.41326
H         87.22364       12.49431       41.17392
H         88.78231       12.74110       43.14628
H         88.87404       13.99003       41.86933
H         91.06694       14.61607       42.70998
H         92.36049       13.56415       42.61757
N         89.54932       11.15184       39.16591
C         90.12048       11.18776       37.82216
C         91.64656       11.25815       37.81362
O         92.21498       11.26763       36.73052
H         89.76980       10.32959       39.73901
H         89.75057       12.07083       37.25728
H         89.78671       10.27858       37.27941
N         92.36738       11.39383       38.96358
C         93.79826       11.68106       39.03599
C         94.51828       10.76771       40.01796
O         94.04419       10.56385       41.12799
C         93.95694       13.14149       39.49217
C         93.44622       14.06430       38.41391
C         92.24362       14.76877       38.57594
C         94.17077       14.20364       37.21691
C         91.76876       15.59212       37.54936
C         93.70179       15.03580       36.19929
C         92.49536       15.73059       36.36043
O         92.02592       16.52988       35.38154
H         91.86009       11.42838       39.84521
H         94.28485       11.58764       38.04006
H         95.02132       13.39432       39.69368
H         93.39433       13.27778       40.44090
H         91.66441       14.66435       39.48492
H         95.10309       13.67016       37.07446
H         90.83275       16.12026       37.67664
H         94.27513       15.13544       35.28586
H         92.50003       16.65128       34.54622
N         95.73180       10.25123       39.67708
C         96.56295        9.39291       40.51644
C         97.87216       10.09485       40.85369
O         98.51528       10.65530       39.97502
C         96.78529        8.03912       39.76955
C         95.49556        7.19008       39.92974
C         98.02696        7.26642       40.26493
C         95.50808        5.86416       39.17393
H         96.11489       10.49318       38.74925
H         96.07144        9.16646       41.48933
H         96.97806        8.25518       38.69485
H         94.62498        7.77628       39.56595
H         95.33326        6.96988       41.00987
H         98.94727        7.87034       40.11726
H         97.93850        6.99673       41.33026
H         98.18902        6.34629       39.67058
H         94.54195        5.34452       39.34063
H         95.63790        6.04517       38.08749
H         96.30841        5.19209       39.54350
N         98.37341        9.98219       42.11889
C         99.66536       10.49451       42.55995
C        100.62598        9.33874       42.79844
O        100.24668        8.19706       42.58160
C         99.46169       11.30528       43.85447
O         98.95691       10.47236       44.86845
H         97.83672        9.42961       42.80557
H        100.11670       11.15284       41.78574
H         98.75387       12.13824       43.63816
H        100.41913       11.74820       44.20061
H         98.36071       11.02524       45.43654
N        101.89147        9.55231       43.25049
C        102.82588        8.47122       43.55850
C        102.26097        7.56153       44.63814
O        102.25846        6.35318       44.45922
C        104.16927        9.04370       44.02410
H        102.19803       10.52668       43.40408
H        103.02900        7.87474       42.63969
H        104.04644        9.65474       44.94346
H        104.88355        8.21812       44.23435
H        104.60484        9.68126       43.22509
N        101.73034        8.09711       45.77483
C        101.16278        7.30854       46.86691
C        100.09065        6.34939       46.38378
O        100.19650        5.16222       46.66167
C        100.57042        8.24433       47.92828
H        101.71485        9.12520       45.85628
H        101.97430        6.71913       47.34874
H         99.75778        8.86706       47.49470
H        100.15653        7.65474       48.77383
H        101.35941        8.91883       48.32324
N         99.04162        6.78952       45.63591
C         97.98746        5.90985       45.13111
C         98.58320        4.76871       44.32091
O         98.27645        3.62105       44.61138
C         96.96933        6.70245       44.28404
C         96.17927        7.71821       45.12738
C         95.19463        8.47826       44.28789
O         95.27449        9.81918       44.20936
O         94.30841        7.89047       43.68892
H         99.01730        7.79080       45.39144
H         97.42898        5.46376       45.98476
H         96.24154        5.99086       43.83361
H         97.50074        7.22620       43.46846
H         96.86822        8.44445       45.60636
H         95.62443        7.18341       45.92787
N         99.48353        5.00957       43.32940
C        100.13323        3.96869       42.55908
H        101.22717        4.00128       42.75156
H         99.76415        2.95471       42.81889
H         99.95546        4.14499       41.47830
H         99.75879        5.97604       43.13470
Ca        91.87303       10.79802       43.98827
O         94.64358       12.57794       43.38428
H         95.46357       12.21443       42.96602
H         94.70105       13.55425       43.23241
O         92.46929       12.53540       46.34302
H         91.93657       13.01082       45.65685
H         93.39878       12.57095       46.00372

Ca 1.0



