%chk=holoCaM.loop4.water3.frame358.chk
%nprocshared=20
%mem=10GB
%nosave
#b3lyp/svp scf=(tight,noincore,xqc) Test 
#IOP(5/87=12) Density=Current Pop=(MK,readradii) iop(6/33=2) iop(6/42=6)

holoCaM.loop4.water3.frame358 

   -3  1 
C         -9.79799       21.72611       55.70490
C        -11.10038       21.91420       56.41967
O        -11.18776       22.83032       57.22466
H         -8.99506       21.52233       56.44444
H         -9.84776       20.88631       54.98254
H         -9.55089       22.65786       55.15251
N        -12.15842       21.07880       56.19569
C        -13.43979       21.26270       56.86588
C        -14.35598       20.05450       56.66091
O        -14.61823       19.66353       55.53247
C        -14.13661       22.54949       56.36769
C        -15.31935       22.91956       57.21728
O        -16.00193       23.88680       56.92268
O        -15.59855       22.22984       58.33690
H        -12.03376       20.28060       55.55445
H        -13.22900       21.37053       57.95418
H        -14.45370       22.40883       55.31238
H        -13.44685       23.41645       56.40832
N        -14.89395       19.44218       57.75037
C        -15.73373       18.24692       57.74641
C        -17.15416       18.56794       58.24381
O        -18.09349       17.96195       57.74777
C        -15.04639       17.18198       58.67217
C        -13.64376       16.80368       58.11589
C        -15.91614       15.92117       58.85958
C        -12.80068       15.95612       59.07557
H        -14.66272       19.84126       58.66608
H        -15.82333       17.81514       56.72393
H        -14.91464       17.64244       59.67637
H        -13.05536       17.72586       57.93012
H        -13.75396       16.26886       57.14694
H        -15.44170       15.20588       59.56083
H        -16.89365       16.17928       59.31613
H        -16.09114       15.41361       57.88812
H        -11.80309       15.76958       58.62351
H        -12.65315       16.49736       60.03361
H        -13.26207       14.97059       59.28091
N        -17.36508       19.42294       59.28733
C        -18.63276       19.55771       60.02471
C        -19.24927       20.96744       60.04989
O        -20.30925       21.11553       60.64295
C        -18.37677       19.06894       61.47360
C        -17.31828       19.87633       62.19728
O        -16.78259       20.96077       61.60102
O        -16.91539       19.51802       63.29116
H        -16.54745       19.92441       59.63473
H        -19.40054       18.89108       59.57436
H        -18.01972       18.01713       61.40701
H        -19.31755       19.07254       62.06403
N        -18.67840       22.03682       59.42951
C        -19.27535       23.37023       59.37506
C        -19.33050       24.16605       60.67936
O        -19.81215       25.28890       60.61940
H        -17.82178       21.88644       58.89290
H        -20.30285       23.28548       58.95839
H        -18.68023       23.98413       58.66437
N        -18.88135       23.69491       61.88071
C        -18.97932       24.46912       63.12818
C        -18.02920       25.67768       63.21747
O        -18.04785       26.34256       64.24493
C        -18.81754       23.54662       64.36713
C        -17.49082       22.86258       64.52077
O        -16.61114       23.01017       63.69752
O        -17.27350       22.06383       65.58190
H        -18.52660       22.73316       61.92774
H        -20.01893       24.85705       63.21086
H        -19.59869       22.75834       64.32485
H        -18.99383       24.14833       65.28504
N        -17.19628       26.04953       62.20081
C        -16.30692       27.20526       62.27238
C        -15.09683       27.01805       63.17677
O        -14.32735       27.95861       63.30201
H        -17.22992       25.54065       61.31420
H        -16.89084       28.09727       62.58854
H        -15.90531       27.41446       61.25702
N        -14.84261       25.83733       63.80999
C        -13.68588       25.58875       64.66808
C        -12.83505       24.46847       64.07734
O        -13.16008       23.97405       63.01115
C        -14.17774       25.25807       66.09184
C        -14.94262       26.45165       66.69710
C        -15.41253       26.21825       68.11112
N        -16.07818       27.19959       68.76302
O        -15.19651       25.15607       68.67679
H        -15.49045       25.05896       63.68121
H        -13.03319       26.48701       64.73038
H        -13.30699       25.04219       66.74655
H        -14.83285       24.35901       66.06602
H        -15.83276       26.68141       66.07352
H        -14.27384       27.34003       66.70106
H        -16.26597       28.10227       68.30162
H        -16.40414       27.06063       69.73082
N        -11.68979       24.05663       64.69870
C        -10.76103       23.08486       64.12160
C        -10.61656       21.86500       65.02541
O        -10.32397       22.00859       66.20284
C         -9.39598       23.78193       63.85910
C         -8.31928       22.79426       63.37613
C         -9.56586       24.88188       62.79494
H        -11.42532       24.49131       65.59413
H        -11.11813       22.72936       63.13441
H         -9.03045       24.24447       64.80239
H         -7.36556       23.33099       63.18573
H         -8.11264       22.02981       64.15263
H         -8.63530       22.28671       62.44098
H        -10.30428       25.64361       63.11996
H         -8.60031       25.39833       62.61107
H         -9.91454       24.44010       61.83491
N        -10.71916       20.61612       64.47691
C        -10.48444       19.36211       65.18827
C         -9.09889       18.83026       64.82339
O         -8.44205       19.39764       63.96418
C        -11.61475       18.37474       64.79134
C        -11.54927       17.00148       65.40791
N        -11.65135       16.83414       66.74538
O        -11.43045       16.02326       64.68460
H        -10.88640       20.54677       63.46651
H        -10.48673       19.54283       66.28488
H        -11.59964       18.26150       63.68288
H        -12.59121       18.81023       65.07638
H        -11.76804       17.64399       67.37020
H        -11.62166       15.88859       67.15455
N         -8.56527       17.76954       65.49439
C         -7.22422       17.23838       65.24408
C         -7.07141       16.71557       63.82890
O         -6.02075       16.92067       63.23704
C         -6.84081       16.18733       66.30852
C         -7.71404       14.95550       66.32510
C         -8.72806       14.82371       67.28868
C         -7.50603       13.91604       65.40374
C         -9.53282       13.68291       67.31799
C         -8.30070       12.76704       65.44763
C         -9.32162       12.64960       66.40127
O        -10.10006       11.55012       66.44967
H         -9.11831       17.35536       66.25429
H         -6.49455       18.06887       65.38069
H         -6.91832       16.70084       67.29227
H         -5.77668       15.88090       66.20562
H         -8.90525       15.61062       68.01117
H         -6.71938       13.98649       64.66270
H        -10.31849       13.60168       68.05825
H         -8.12073       11.96844       64.74208
H         -9.98370       10.80988       65.83733
N         -8.10079       16.07975       63.20229
C         -8.05137       15.67768       61.80017
C         -7.84790       16.90675       60.93076
O         -6.92633       16.93822       60.12771
C         -9.37639       14.98870       61.37041
C         -9.69822       13.67188       62.10512
C         -8.75636       12.53193       61.80940
O         -8.98384       11.33140       62.37440
O         -7.81323       12.66132       61.04527
H         -8.96923       15.92390       63.73320
H         -7.20900       14.97301       61.63903
H         -9.35169       14.77654       60.27810
H        -10.22126       15.68875       61.55270
H        -10.71068       13.34451       61.78463
H         -9.73520       13.84558       63.19930
N         -8.69907       17.96213       61.05313
C         -8.64577       19.16082       60.21745
C         -7.39684       20.00438       60.46388
O         -7.18918       20.95776       59.72520
C         -9.87590       20.04556       60.50502
C        -11.21725       19.32467       60.26055
C        -12.37849       20.11576       60.78238
O        -13.49729       19.63491       60.74992
O        -12.19616       21.32163       61.34741
H         -9.43642       17.88272       61.76748
H         -8.67191       18.84401       59.15135
H         -9.85137       20.97120       59.88751
H         -9.80813       20.34059       61.56995
H        -11.25423       18.36029       60.79952
H        -11.34494       19.11985       59.17641
N         -6.54731       19.75894       61.50035
C         -5.38971       20.58261       61.76913
H         -4.68687       20.54343       60.91136
H         -5.70429       21.63240       61.94991
H         -4.86722       20.21204       62.67766
H         -6.73112       18.98636       62.14624
Ca       -14.84069       22.01229       61.98089
O        -12.72811       23.84716       60.10912
H        -11.99107       24.49586       60.22746
H        -12.35299       23.14085       59.52823
O        -13.94749       20.76923       64.37762
H        -14.70924       21.33503       64.65532
H        -14.36200       20.01126       63.89282
O        -15.37214       24.55683       60.04099
H        -16.25282       24.38879       59.62221
H        -15.14361       25.48236       59.77518

Ca 1.0



