%chk=holoCaM-CaMKII.loop2.water2.frame172.chk
%nprocshared=20
%mem=10GB
%nosave
#b3lyp/svp scf=(tight,noincore,xqc) Test 
#IOP(5/87=12) Density=Current Pop=(MK,readradii) iop(6/33=2) iop(6/42=6)

holoCaM-CaMKII.loop2.water2.frame172 

   -2  1 
C        124.89256       46.79799        7.17048
C        125.80614       47.91933        6.76372
O        125.50782       48.63060        5.81541
H        124.00094       46.74637        6.51065
H        125.43514       45.83077        7.12499
H        124.54760       46.96596        8.21415
N        126.93812       48.15135        7.47982
C        127.83507       49.27321        7.23202
C        128.55586       49.17699        5.89541
O        129.25690       48.20129        5.66478
C        128.89481       49.34657        8.34999
C        129.76858       50.55162        8.17786
O        131.09680       50.41720        8.00600
O        129.26690       51.65993        8.16883
H        127.12966       47.53341        8.28476
H        127.23463       50.20994        7.28114
H        129.51875       48.42632        8.34694
H        128.39310       49.42003        9.33701
N        128.49695       50.21590        5.01196
C        129.29608       50.29237        3.79182
C        130.21658       51.52195        3.77582
O        130.92053       51.69630        2.79069
C        128.35091       50.33551        2.58812
H        127.87887       51.01154        5.23017
H        129.93979       49.39208        3.68646
H        127.70827       49.42959        2.58042
H        127.70107       51.23603        2.63485
H        128.92865       50.35807        1.63911
N        130.24765       52.42881        4.80067
C        131.01119       53.67824        4.77503
C        131.98820       53.79067        5.94867
O        133.17144       53.96158        5.68851
C        130.04422       54.89302        4.66251
C        128.74915       54.74152        5.42308
O        128.72338       54.58069        6.75409
O        127.69963       54.67405        4.80328
H        129.65679       52.27228        5.62569
H        131.64481       53.73939        3.86056
H        129.74944       54.96318        3.59053
H        130.56757       55.84081        4.91317
N        131.58598       53.73349        7.25066
C        132.47236       53.92080        8.39345
C        132.06545       55.10513        9.26389
O        132.71562       55.32704       10.27526
H        130.60678       53.54488        7.46269
H        133.52349       54.08068        8.07123
H        132.44169       52.99792        9.01075
N        131.02384       55.92396        8.93042
C        130.61541       57.10755        9.69261
C        129.98847       56.82230       11.06942
O        129.57518       57.77774       11.71275
C        129.67258       57.97875        8.82164
C        128.36048       57.34692        8.43024
N        127.50992       58.02716        7.63213
O        128.05918       56.22907        8.81503
H        130.54067       55.75178        8.04088
H        131.51545       57.74028        9.85789
H        130.21402       58.23317        7.88358
H        129.45429       58.93104        9.35071
H        127.74760       58.96684        7.28439
H        126.61352       57.61206        7.35659
N        129.91507       55.57142       11.61451
C        129.38286       55.30638       12.94819
C        127.86410       55.35637       13.06612
O        127.37687       55.14924       14.16813
H        130.33314       54.77752       11.11949
H        129.85176       56.00834       13.67328
H        129.68040       54.27841       13.24760
N        127.05158       55.60084       11.99857
C        125.58949       55.65021       12.06571
C        124.95382       54.69405       11.07662
O        125.42335       54.59858        9.95048
C        125.08175       57.06924       11.71968
C        125.43732       58.07500       12.80958
O        125.61107       57.51350       10.49466
H        127.48300       55.77912       11.08729
H        125.21139       55.40435       13.08348
H        123.96544       57.05835       11.67142
H        125.06353       57.11115        9.77132
H        124.98352       57.76147       13.77481
H        126.53689       58.15675       12.93047
H        125.02566       59.07059       12.53967
N        123.78688       54.05531       11.38868
C        123.00818       53.35454       10.37387
C        122.35509       54.41044        9.48831
O        121.50513       55.14416        9.97673
C        121.91381       52.43067       10.99865
C        122.53432       51.40747       11.98394
C        121.14190       51.70227        9.87914
C        121.48614       50.55909       12.71218
H        123.39364       54.16297       12.33625
H        123.69448       52.70517        9.78875
H        121.19862       53.06595       11.56815
H        123.09829       51.94964       12.77036
H        123.24452       50.74020       11.44909
H        121.82370       51.04809        9.29363
H        120.30822       51.09230       10.27615
H        120.67572       52.43279        9.19676
H        120.92626       49.90594       12.01363
H        121.98950       49.89929       13.44861
H        120.77096       51.21443       13.25453
N        122.71821       54.56448        8.18583
C        122.08749       55.54910        7.30589
C        120.69008       55.08737        6.92424
O        120.28652       54.00708        7.31701
C        122.91745       55.75327        6.02031
C        124.28014       56.31236        6.30273
O        124.59681       57.40143        5.85106
O        125.16568       55.61502        7.03477
H        123.47604       53.97610        7.81952
H        122.03197       56.53110        7.82813
H        122.40199       56.48687        5.36710
H        123.01557       54.79554        5.46579
N        119.89183       55.85681        6.13396
C        118.58136       55.40860        5.68071
C        118.68055       54.15137        4.81121
O        118.02269       53.18090        5.16601
C        117.81875       56.56330        4.99613
C        116.39482       56.17103        4.67507
C        116.10377       55.38039        3.54955
C        115.34289       56.58435        5.51212
C        114.78522       55.00928        3.26981
C        114.02743       56.20187        5.23445
C        113.74846       55.41605        4.11368
H        120.22277       56.79105        5.85126
H        117.97574       55.16294        6.58460
H        118.32522       56.96044        4.09367
H        117.79835       57.39494        5.73551
H        116.89455       55.05729        2.88483
H        115.54153       57.18677        6.39001
H        114.56753       54.40390        2.39960
H        113.22472       56.51255        5.89077
H        112.72911       55.12227        3.89967
N        119.45338       54.04874        3.67884
C        119.47109       52.86316        2.82777
C        120.13721       51.65659        3.47135
O        120.06782       50.58263        2.89129
C        120.23007       53.32585        1.57940
C        121.20995       54.31896        2.16748
C        120.32423       55.07970        3.15129
H        118.43525       52.57435        2.54201
H        120.67198       52.51578        0.95966
H        119.53388       53.91566        0.94157
H        121.96673       53.74112        2.74833
H        121.74596       54.96290        1.43906
H        120.98279       55.53522        3.90682
H        119.70718       55.84953        2.64332
N        120.80010       51.74795        4.65502
C        121.38495       50.59871        5.33130
C        120.30266       49.94270        6.15573
O        120.03365       48.76494        5.96275
C        122.61608       51.04963        6.15006
C        123.68093       51.57224        5.16763
C        124.91285       52.14690        5.78433
O        125.77715       52.58092        5.04131
O        125.08894       52.25111        7.11307
H        120.89179       52.66561        5.11133
H        121.76057       49.85431        4.59118
H        123.03759       50.19088        6.71806
H        122.32495       51.84351        6.87188
H        123.24846       52.38335        4.54536
H        123.98726       50.74078        4.49616
N        119.58507       50.67312        7.04849
C        118.47139       50.12853        7.78936
H        117.69327       49.76690        7.08292
H        118.81206       49.29434        8.43569
H        118.02289       50.92152        8.42584
H        119.80924       51.66521        7.17655
Ca       126.95081       53.43945        7.53932
O        128.48659       53.11409       10.42375
H        128.96170       53.61774        9.71498
H        129.19420       52.58127       10.86716
O        126.18577       51.22938        9.79150
H        125.30677       51.01921        9.38996
H        126.43461       50.40108       10.27129

Ca 1.0



