%chk=holoCaM.loop1.water2.frame3.chk
%nprocshared=20
%mem=10GB
%nosave
#b3lyp/svp scf=(tight,noincore,xqc) Test 
#IOP(5/87=12) Density=Current Pop=(MK,readradii) iop(6/33=2) iop(6/42=6)

holoCaM.loop1.water2.frame3 

   0  1 
C         85.92924       43.83607       33.02388
C         86.84577       42.97638       32.20263
O         87.85522       43.47416       31.72968
H         85.04285       43.26560       33.37487
H         86.47135       44.22932       33.90807
H         85.57084       44.68506       32.40388
N         86.53628       41.67179       31.96652
C         87.34177       40.77743       31.13560
C         87.52243       41.40400       29.75779
O         86.54398       41.71614       29.09482
C         86.66015       39.39943       31.12619
C         87.22992       38.36131       30.21275
O         88.50986       37.96113       30.26137
O         86.48195       37.80273       29.42701
H         85.66399       41.30775       32.38193
H         88.34131       40.65112       31.60920
H         85.59007       39.52754       30.85292
H         86.69986       38.99944       32.16385
N         88.78270       41.71314       29.33813
C         89.11330       42.57194       28.20950
C         89.96454       41.80042       27.21451
O         89.52137       41.60651       26.09091
C         89.81968       43.81086       28.80367
C         90.15605       44.93222       27.81995
C         90.77158       46.10888       28.60616
C         91.15045       47.31774       27.74000
N         89.98161       47.95125       27.12783
H         89.56538       41.39872       29.91588
H         88.18295       42.91121       27.70203
H         90.74717       43.50144       29.33221
H         89.13135       44.24009       29.56451
H         89.21953       45.25187       27.31850
H         90.87689       44.56738       27.05699
H         91.69604       45.75042       29.11117
H         90.06334       46.44837       29.39516
H         91.87598       47.01205       26.95533
H         91.65059       48.06286       28.39926
H         89.29506       48.23126       27.86606
H         90.29149       48.80904       26.61696
H         89.52744       47.30787       26.44248
N         91.17386       41.27319       27.57598
C         91.94864       40.37746       26.71091
C         91.22436       39.05177       26.42131
O         91.72614       38.28476       25.61143
C         93.35449       40.08482       27.30432
C         93.35512       39.46768       28.68376
O         92.21345       39.33224       29.38006
O         94.40830       39.11473       29.18716
H         91.54508       41.50856       28.50588
H         92.10985       40.89480       25.73812
H         93.93879       41.02830       27.35782
H         93.88965       39.40101       26.60834
N         90.03958       38.72521       27.01514
C         89.27143       37.52737       26.72277
C         89.90269       36.26293       27.27897
O         90.89009       35.79184       26.73783
H         89.61034       39.36984       27.69015
H         89.06371       37.43602       25.63513
H         88.28019       37.66237       27.20701
N         89.33647       35.66705       28.37200
C         89.76519       34.42114       29.02371
C         88.89698       34.02360       30.25531
O         89.29842       33.10200       30.95291
C         91.27318       34.44732       29.40408
C         91.67507       35.48967       30.40302
O         92.84545       35.57879       30.73477
O         90.77244       36.32270       30.94101
H         88.53984       36.16764       28.74873
H         89.66686       33.59328       28.28787
H         91.89141       34.59050       28.49772
H         91.55815       33.45267       29.81065
N         87.68195       34.59200       30.55637
C         86.83166       34.16741       31.66064
C         87.22125       34.68807       33.03352
O         86.48867       34.38566       33.96487
H         87.24044       35.27315       29.93481
H         86.74717       33.05923       31.66431
H         85.81038       34.57075       31.47993
N         88.32181       35.46401       33.26021
C         88.67160       35.97935       34.58942
C         88.91633       37.48527       34.59437
O         89.01085       38.10580       33.54473
C         89.90605       35.21994       35.15659
C         89.49183       33.83954       35.66617
O         90.92108       35.05077       34.19736
H         88.94751       35.67707       32.47473
H         87.82324       35.83565       35.29404
H         90.32017       35.75875       36.03711
H         90.94312       35.85392       33.62105
H         89.05948       33.22310       34.85152
H         90.37479       33.31406       36.08797
H         88.74022       33.95031       36.47839
N         88.97361       38.13440       35.79886
C         89.17232       39.57077       35.97634
C         90.34829       39.78204       36.92579
O         90.27356       39.36958       38.07544
C         87.86442       40.21397       36.54095
C         86.71636       40.06861       35.50603
C         88.07109       41.69930       36.90899
C         85.34207       40.47330       36.04409
H         88.82356       37.57721       36.65457
H         89.39410       40.05854       35.00164
H         87.58641       39.66706       37.46972
H         86.62506       39.00732       35.19570
H         86.95188       40.67162       34.60172
H         87.15948       42.13716       37.36089
H         88.86387       41.80973       37.67487
H         88.34646       42.29275       36.01307
H         85.07905       39.84366       36.92075
H         85.30283       41.54188       36.33264
H         84.57839       40.31341       35.25390
N         91.46680       40.43346       36.50329
C         92.61074       40.73698       37.36132
C         92.35715       42.02965       38.12226
O         91.32070       42.64167       37.93198
C         93.89861       40.88028       36.50024
C         94.21294       39.59060       35.74129
O         93.74874       41.93509       35.58649
H         91.49592       40.76251       35.53359
H         92.77510       39.90573       38.08287
H         94.75832       41.09571       37.17344
H         94.64988       42.14205       35.22535
H         93.39252       39.35351       35.03470
H         95.15086       39.71535       35.15948
H         94.34763       38.74686       36.44972
N         93.28858       42.53191       38.97819
C         93.16502       43.85035       39.60160
C         93.10698       44.93666       38.53696
O         92.24015       45.79600       38.61551
C         94.34355       44.13310       40.56456
C         94.28988       43.21366       41.79077
O         95.56985       43.98344       39.89486
H         94.13941       41.97738       39.15247
H         92.23199       43.90321       40.20829
H         94.23929       45.18348       40.92678
H         96.26632       44.39207       40.47196
H         93.33048       43.36233       42.33224
H         94.37765       42.14663       41.50130
H         95.11860       43.46450       42.48569
N         93.98458       44.93247       37.49242
C         94.00361       45.94765       36.44001
C         92.63941       46.08708       35.79606
O         92.11574       47.18855       35.70704
C         95.00792       45.58342       35.31022
C         96.46518       45.33726       35.73067
C         97.10639       46.53233       36.43774
C         98.58229       46.23859       36.73629
N         99.20909       47.35877       37.43379
H         94.64807       44.14835       37.43626
H         94.29438       46.92675       36.87847
H         94.99665       46.40452       34.55863
H         94.67008       44.65877       34.79334
H         97.03957       45.11500       34.80385
H         96.53813       44.44180       36.38145
H         96.57375       46.72803       37.39280
H         97.03369       47.43215       35.78879
H         99.12248       46.05218       35.78075
H         98.66157       45.32466       37.36693
H        100.21457       47.13115       37.60789
H         99.15236       48.22371       36.84870
H         98.73342       47.51874       38.35141
N         92.02369       44.98153       35.30666
C         90.76327       44.99195       34.57937
C         89.66057       45.57317       35.44694
O         89.06765       46.56691       35.05041
C         90.46653       43.56670       34.04788
C         91.57812       43.15210       33.04985
C         91.40030       41.80231       32.43181
O         91.30814       40.69483       33.18610
O         91.44515       41.69456       31.22174
H         92.49717       44.08263       35.45987
H         90.86552       45.64690       33.68432
H         89.48999       43.56539       33.53135
H         90.41397       42.84387       34.89024
H         92.56415       43.12867       33.54732
H         91.63174       43.90810       32.23506
N         89.38042       45.05018       36.67052
C         88.42764       45.63115       37.59582
H         87.64739       44.88494       37.84838
H         88.96051       45.92158       38.52731
H         87.93663       46.53931       37.18733
H         89.89481       44.22328       36.98407
Ca        90.41923       39.02636       30.69277
O         94.21105       39.61943       32.31085
H         93.76632       38.92554       31.76273
H         95.04713       39.18929       32.62098
O         93.07507       37.11325       33.65963
H         93.20664       36.25249       33.19148
H         93.78267       37.11714       34.34932

Ca 1.0



