%chk=holoCaM-CaMKII.loop1.water2.frame159.chk
%nprocshared=20
%mem=10GB
%nosave
#b3lyp/svp scf=(tight,noincore,xqc) Test 
#IOP(5/87=12) Density=Current Pop=(MK,readradii) iop(6/33=2) iop(6/42=6)

holoCaM-CaMKII.loop1.water2.frame159 

   0  1 
C         92.25779      105.88996       37.93074
C         92.49762      107.35954       38.11830
O         93.34685      107.72426       38.91798
H         91.46772      105.70141       37.17267
H         93.19418      105.40155       37.58887
H         91.93708      105.43923       38.89266
N         91.78787      108.26843       37.39632
C         91.98794      109.70702       37.50985
C         91.60803      110.19125       38.90336
O         90.45559      110.03967       39.28509
C         91.12603      110.42049       36.44408
C         91.33696      111.90033       36.36285
O         92.22830      112.52738       37.14786
O         90.69544      112.54337       35.55317
H         91.09611      107.91636       36.71554
H         93.05726      109.92852       37.28971
H         90.05046      110.22261       36.64442
H         91.36978      110.01143       35.44382
N         92.52816      110.80289       39.70600
C         92.21400      111.34779       41.02541
C         92.38181      112.85945       41.08554
O         91.95684      113.43200       42.08066
C         93.08141      110.66103       42.10378
C         92.72631      109.17824       42.32374
C         91.35444      109.01763       43.00386
C         91.01684      107.54985       43.28126
N         89.73478      107.44270       43.97965
H         93.49298      110.89387       39.36314
H         91.14146      111.19576       41.25349
H         92.97617      111.17856       43.08270
H         94.14778      110.74623       41.79701
H         93.49245      108.74102       43.00103
H         92.76134      108.62482       41.36197
H         90.54816      109.43683       42.37013
H         91.37189      109.56881       43.97017
H         91.81311      107.09246       43.90918
H         90.96210      106.99546       42.31804
H         89.51420      106.43458       44.14500
H         89.78835      107.93201       44.90311
H         88.97145      107.86721       43.40381
N         92.94391      113.59021       40.07823
C         92.93054      115.05011       40.08698
C         91.59582      115.58938       39.58572
O         91.39998      116.79562       39.64507
C         94.03620      115.60898       39.17021
C         95.40428      115.18460       39.61608
O         95.85906      115.53916       40.83289
O         96.11672      114.53146       38.87140
H         93.35340      113.11536       39.26421
H         93.11734      115.41618       41.12172
H         94.00535      116.72056       39.17120
H         93.85490      115.25781       38.13185
N         90.66316      114.77691       39.00387
C         89.45528      115.27824       38.37181
C         89.80728      116.24804       37.26663
O         89.31887      117.36856       37.27249
H         90.82726      113.76322       38.93627
H         88.79342      115.75666       39.12497
H         88.90714      114.41991       37.92272
N         90.69246      115.87612       36.30155
C         91.13505      116.73529       35.20793
C         90.78646      116.14873       33.83900
O         91.15401      116.74501       32.83684
C         92.63961      117.07688       35.37740
C         93.63262      115.94061       35.46296
O         94.80982      116.20462       35.64913
O         93.26112      114.64957       35.38975
H         91.09241      114.93162       36.36639
H         90.61163      117.71586       35.24937
H         92.73647      117.64575       36.32896
H         92.94874      117.75493       34.55273
N         90.02141      115.02355       33.71679
C         89.59577      114.45086       32.44844
C         90.76184      113.98539       31.61618
O         90.83364      114.34345       30.45318
H         89.67333      114.55245       34.56033
H         88.97703      115.18367       31.88527
H         88.96113      113.56380       32.66318
N         91.69045      113.15412       32.15888
C         92.89046      112.63464       31.49605
C         93.57464      111.64571       32.43395
O         93.84296      111.99387       33.57282
C         93.95219      113.72791       31.09506
C         93.65468      114.49672       29.80564
O         94.24128      114.65952       32.11067
H         91.52062      112.86397       33.13414
H         92.60734      112.07851       30.57537
H         94.88565      113.16885       30.85653
H         93.80686      114.38634       32.95332
H         94.55565      115.07878       29.51648
H         93.42404      113.79215       28.97741
H         92.85107      115.24073       29.92408
N         93.94401      110.41146       31.99986
C         94.66476      109.44991       32.82844
C         96.09034      109.39098       32.32166
O         96.28904      109.16245       31.13429
C         93.98112      108.05271       32.77180
C         92.51000      108.14465       33.24625
C         94.76558      107.03596       33.63218
C         91.71597      106.85511       33.02742
H         93.77209      110.16263       31.01263
H         94.68222      109.77262       33.89515
H         93.98922      107.71036       31.71306
H         91.98378      108.93624       32.67148
H         92.48370      108.41437       34.32156
H         95.81508      106.95001       33.28712
H         94.76945      107.34784       34.69963
H         94.33381      106.01910       33.55965
H         90.66436      107.01239       33.34680
H         91.72028      106.58503       31.94965
H         92.12289      106.01231       33.61989
N         97.13836      109.55678       33.17730
C         98.53027      109.49452       32.74546
C         99.10966      108.12965       33.05793
O         98.44280      107.32164       33.68631
C         99.37069      110.62239       33.40997
C         98.85535      112.02727       33.07687
O         99.44654      110.44361       34.80332
H         96.93836      109.64832       34.18491
H         98.58830      109.61332       31.64101
H        100.40945      110.57059       33.02051
H         98.61310      110.78652       35.21694
H         99.50698      112.78739       33.56104
H         98.86441      112.19491       31.98054
H         97.82208      112.15626       33.45907
N        100.35355      107.79112       32.62826
C        100.99174      106.51496       32.95467
C        101.13980      106.39255       34.46367
O        100.77389      105.37523       35.03220
C        102.37122      106.36521       32.26157
C        102.25194      106.34951       30.72747
O        103.29109      107.34044       32.69256
H        100.86704      108.48443       32.06414
H        100.35886      105.67607       32.58405
H        102.78407      105.37349       32.54920
H        103.08433      108.19503       32.23397
H        101.85284      107.30942       30.33872
H        103.25077      106.17786       30.27464
H        101.57404      105.53045       30.40498
N        101.58568      107.46826       35.16853
C        101.68144      107.56039       36.62398
C        100.40900      107.07946       37.30415
O        100.48699      106.18146       38.13215
C        101.95795      109.04724       36.96136
C        101.93735      109.44012       38.44448
C        102.23219      110.94527       38.63743
C        101.20220      111.88102       37.96358
N        101.52912      113.28558       38.20600
H        101.80920      108.31468       34.62255
H        102.52394      106.92989       36.98509
H        101.16948      109.63136       36.45614
H        102.93856      109.33215       36.52028
H        102.70895      108.85218       38.98550
H        100.94359      109.21003       38.88683
H        103.24470      111.17035       38.23747
H        102.23610      111.15621       39.72850
H        100.18547      111.66486       38.36033
H        101.18775      111.72783       36.86468
H        102.47224      113.50617       37.81050
H        100.81957      113.88919       37.73028
H        101.51622      113.48970       39.23091
N         99.20823      107.65121       37.02544
C         97.97269      107.29415       37.71625
C         97.60487      105.84459       37.44329
O         97.54184      105.07110       38.38886
C         96.84895      108.29435       37.34459
C         97.22751      109.69958       37.86994
C         96.23645      110.77885       37.54700
O         95.98142      111.12696       36.27197
O         95.71799      111.41091       38.45148
H         99.18686      108.39574       36.31561
H         98.13398      107.39668       38.81422
H         95.89674      107.98265       37.82578
H         96.69889      108.30723       36.24326
H         98.19922      110.02739       37.45279
H         97.34265      109.63800       38.97498
N         97.38723      105.39740       36.17667
C         97.10724      104.01224       35.84997
H         96.13274      103.94361       35.32433
H         97.90450      103.62742       35.17823
H         97.07181      103.36030       36.74830
H         97.44155      106.06159       35.39901
Ca        94.74611      112.99516       35.88740
O         96.60629      114.51653       33.73757
H         97.44313      115.02683       33.87185
H         96.68261      114.15706       32.81820
O         98.01133      113.61241       36.46197
H         98.20601      113.37242       37.40254
H         98.61382      114.37422       36.26991

Ca 1.0



