%chk=holoCaM-CaMKII.loop3.water2.frame235.chk
%nprocshared=20
%mem=10GB
%nosave
#b3lyp/svp scf=(tight,noincore,xqc) Test 
#IOP(5/87=12) Density=Current Pop=(MK,readradii) iop(6/33=2) iop(6/42=6)

holoCaM-CaMKII.loop3.water2.frame235 

   0  1 
C         87.36454       20.09784       22.71352
C         87.28224       19.64009       21.28664
O         86.53432       18.71578       21.00237
H         88.07677       20.94317       22.82703
H         86.36391       20.43480       23.05442
H         87.71055       19.26054       23.35427
N         88.03588       20.24887       20.33160
C         88.02521       19.87859       18.92514
C         89.42071       19.41564       18.54846
O         90.37964       20.12146       18.83127
C         87.57644       21.09318       18.09538
C         87.38695       20.78534       16.63346
O         87.04286       21.67489       15.87312
O         87.58216       19.54298       16.15202
H         88.65831       21.02284       20.61313
H         87.29231       19.06190       18.73567
H         88.31705       21.91065       18.21538
H         86.59857       21.45027       18.48384
N         89.60579       18.22268       17.91797
C         90.92063       17.65313       17.63900
C         91.79185       18.62753       16.85828
O         92.89545       18.90753       17.30481
C         90.77073       16.29825       16.90555
C         92.01287       15.40278       17.04473
C         91.80345       14.05329       16.33293
C         92.84024       12.98582       16.72917
N         94.21729       13.39081       16.45121
H         88.76917       17.68330       17.65347
H         91.39709       17.44433       18.62355
H         90.50257       16.46493       15.84219
H         89.94831       15.72777       17.38930
H         92.16144       15.21247       18.13070
H         92.91571       15.90789       16.64067
H         91.80495       14.21441       15.23258
H         90.81357       13.63386       16.61788
H         92.61174       12.05209       16.16777
H         92.73741       12.75952       17.81424
H         94.33044       13.62492       15.43919
H         94.48281       14.20836       17.04547
H         94.85395       12.59644       16.69197
N         91.33149       19.22883       15.71979
C         92.11165       20.20345       14.95208
C         91.52460       21.61761       14.98472
O         92.11658       22.49374       14.36847
C         92.33256       19.70363       13.50557
C         91.09535       19.54697       12.66188
O         89.87320       19.81000       13.15031
O         91.20502       19.17480       11.50539
H         90.37830       18.99875       15.40408
H         93.12768       20.30397       15.39236
H         92.84885       18.72092       13.54844
H         93.00641       20.41917       12.98536
N         90.41935       21.94489       15.71927
C         89.93844       23.31845       15.84185
C         89.37521       23.92023       14.56564
O         89.12888       25.11865       14.56839
H         89.95571       21.22290       16.28176
H         90.78852       23.94565       16.19076
H         89.14832       23.38347       16.61757
N         89.14758       23.18265       13.43894
C         88.73978       23.78417       12.16766
C         87.36257       24.45353       12.18406
O         87.03258       25.10233       11.20196
C         88.79936       22.74683       11.02167
C         87.65964       21.75403       11.06240
N         86.79820       21.65070       10.02321
O         87.50471       21.04600       12.04129
H         89.34625       22.17664       13.46563
H         89.50441       24.56015       11.93986
H         89.77184       22.20807       11.06029
H         88.76387       23.29104       10.05416
H         86.90723       22.23848        9.18416
H         86.01676       20.97937       10.05614
N         86.50187       24.32245       13.23489
C         85.19277       24.95927       13.29295
C         84.06743       23.96312       13.48027
O         82.96725       24.40190       13.79566
H         86.77316       23.75842       14.05075
H         84.97444       25.58379       12.39918
H         85.20275       25.63172       14.17604
N         84.23482       22.62462       13.27690
C         83.18266       21.63374       13.49947
C         83.69691       20.49835       14.36105
O         84.89890       20.40545       14.57567
C         82.70758       21.09334       12.13898
C         82.02313       22.18842       11.36276
C         80.70915       22.56098       11.69181
C         82.69114       22.86166       10.32768
C         80.07098       23.58917       10.99366
C         82.05697       23.90263        9.64223
C         80.74309       24.26850        9.97262
O         80.11983       25.27092        9.32130
H         85.13920       22.28524       12.91155
H         82.32143       22.09293       14.03609
H         82.00520       20.23720       12.24345
H         83.60033       20.72491       11.58900
H         80.17740       22.04862       12.48455
H         83.70893       22.59800       10.06832
H         79.05520       23.86194       11.25163
H         82.58880       24.42654        8.85840
H         80.55341       25.77638        8.61916
N         82.83551       19.61549       14.93460
C         83.26519       18.49499       15.76906
C         82.51598       17.25032       15.33098
O         81.29314       17.30838       15.24737
C         82.99646       18.76489       17.28022
C         83.52841       20.15855       17.70357
C         83.66547       17.64822       18.11835
C         83.25219       20.50295       19.16885
H         81.82109       19.78076       14.81786
H         84.36579       18.34286       15.67167
H         81.89840       18.75614       17.46030
H         83.01468       20.93460       17.09692
H         84.61956       20.23026       17.51148
H         83.29530       16.64724       17.82299
H         84.76976       17.66657       17.97655
H         83.44685       17.75444       19.19815
H         83.58294       21.54291       19.37144
H         82.16474       20.42748       19.38359
H         83.81296       19.83764       19.85550
N         83.15720       16.07220       15.10602
C         82.45566       14.85174       14.72527
C         82.41421       13.87290       15.88651
O         82.97174       14.15917       16.93808
C         83.13438       14.23486       13.48825
O         83.25337       15.17448       12.45299
H         84.17360       16.02221       15.26399
H         81.39766       15.07831       14.46596
H         82.58101       13.34259       13.12173
H         84.15801       13.89999       13.76378
H         82.33503       15.45807       12.20799
N         81.73204       12.69947       15.77467
C         81.63013       11.71628       16.85108
C         82.99597       11.20186       17.24858
O         83.29326       11.16050       18.43297
C         80.75112       10.53899       16.42236
H         81.25311       12.50007       14.88163
H         81.13806       12.18030       17.73629
H         80.66048        9.81246       17.25922
H         79.73272       10.90297       16.16906
H         81.18118       10.02045       15.53967
N         83.88913       10.81771       16.29492
C         85.23993       10.36184       16.59882
C         86.00339       11.40507       17.39317
O         86.52281       11.08173       18.45275
C         85.99571       10.05845       15.29709
H         83.60147       10.88419       15.30612
H         85.18727        9.41844       17.18653
H         85.46197        9.27314       14.72106
H         86.07543       10.96716       14.66148
H         87.02006        9.69234       15.52305
N         86.11363       12.68254       16.93247
C         86.90013       13.71067       17.61350
C         86.36182       14.05711       18.99712
O         87.08142       14.69284       19.75570
C         86.95430       14.99530       16.76336
C         87.63597       14.75782       15.40419
C         87.58159       15.98373       14.54929
O         88.60931       16.51545       14.16336
O         86.39009       16.47473       14.16255
H         85.63949       12.91247       16.04655
H         87.93484       13.31796       17.73686
H         87.51735       15.78115       17.30704
H         85.91557       15.36098       16.61873
H         87.13325       13.95267       14.83366
H         88.68998       14.45319       15.57467
N         85.10706       13.70778       19.39134
C         84.59039       14.01602       20.70623
H         83.53796       13.66815       20.78792
H         85.19536       13.49679       21.47935
H         84.61677       15.11216       20.88203
H         84.48332       13.22675       18.73750
Ca        87.28113       19.10742       13.96919
O         87.98530       18.05162       11.01230
H         87.30235       18.16223       10.30443
H         88.84415       18.22518       10.55256
O         85.02333       18.49440       11.98647
H         84.54781       17.65057       12.18859
H         84.88029       18.63547       11.01706

Ca 1.0



