%chk=holoCaM-CaMKII.loop3.water3.frame23.chk
%nprocshared=20
%mem=10GB
%nosave
#b3lyp/svp scf=(tight,noincore,xqc) Test 
#IOP(5/87=12) Density=Current Pop=(MK,readradii) iop(6/33=2) iop(6/42=6)

holoCaM-CaMKII.loop3.water3.frame23 

   0  1 
C         30.14671       59.59349       25.46787
C         29.21753       60.76739       25.40362
O         28.16867       60.65532       24.78420
H         31.05498       59.82888       26.06137
H         29.62473       58.73879       25.94797
H         30.45407       59.30593       24.44163
N         29.52221       61.92740       26.04948
C         28.61772       63.06540       26.06435
C         28.47827       63.65352       24.66194
O         29.46649       64.09239       24.09073
C         29.09084       64.11466       27.10137
C         28.03189       65.14302       27.38332
O         27.88362       65.56795       28.51347
O         27.07400       65.34419       26.47109
H         30.39814       61.97804       26.59247
H         27.63194       62.69551       26.42993
H         30.05346       64.59170       26.82487
H         29.25058       63.56913       28.05669
N         27.25782       63.68023       24.05355
C         27.01041       64.19140       22.70713
C         27.41374       65.65241       22.57503
O         28.19862       65.95952       21.68872
C         25.52240       63.96794       22.33211
C         25.20950       64.34881       20.87200
C         23.83261       63.84946       20.39475
C         22.63780       64.47313       21.13122
N         21.37829       63.94041       20.60641
H         26.46100       63.28901       24.57314
H         27.61403       63.58971       21.99041
H         24.85678       64.52505       23.02627
H         25.31813       62.88049       22.45000
H         25.96142       63.85817       20.21639
H         25.29314       65.44864       20.73245
H         23.79470       62.74319       20.50352
H         23.73811       64.08955       19.31285
H         22.65546       65.57721       20.99713
H         22.69436       64.24795       22.21675
H         20.57702       64.38365       21.11078
H         21.29211       64.15062       19.58513
H         21.33662       62.90520       20.75422
N         26.93995       66.59996       23.43379
C         27.28571       68.02012       23.33590
C         28.23646       68.48043       24.44235
O         28.52719       69.66754       24.49963
C         26.00271       68.88152       23.24104
C         25.09594       68.85560       24.44239
O         24.07025       69.51641       24.43243
O         25.39173       68.12422       25.52776
H         26.32524       66.29147       24.19922
H         27.83947       68.21574       22.39186
H         25.41726       68.54010       22.36004
H         26.29696       69.93905       23.06439
N         28.83876       67.59741       25.29319
C         29.85476       67.98579       26.26375
C         29.36358       68.84409       27.41507
O         30.20421       69.28148       28.18863
H         28.65887       66.59444       25.18275
H         30.65782       68.53128       25.72186
H         30.31209       67.07450       26.70494
N         28.04585       69.14222       27.60682
C         27.58910       70.05940       28.65281
C         27.81330       69.55558       30.08374
O         27.56507       70.32260       31.00340
C         26.10209       70.42664       28.43525
C         25.14165       69.31177       28.78334
N         24.14886       69.51871       29.67842
O         25.25085       68.21904       28.25289
H         27.35708       68.76775       26.94440
H         28.16717       71.00088       28.51460
H         25.95848       70.71849       27.37135
H         25.85812       71.31769       29.05277
H         24.02827       70.43378       30.13625
H         23.48735       68.76267       29.90772
N         28.24653       68.28653       30.35130
C         28.47099       67.76253       31.69329
C         27.55861       66.59359       32.04631
O         27.71829       66.05892       33.13470
H         28.43621       67.64682       29.57466
H         28.31571       68.54821       32.46507
H         29.52934       67.43332       31.76108
N         26.53995       66.18908       31.23022
C         25.52810       65.20102       31.61139
C         25.26733       64.18245       30.50762
O         25.10466       64.57665       29.36547
C         24.22077       65.96970       31.88130
C         24.32342       66.79226       33.14436
C         24.37443       68.19418       33.09856
C         24.35993       66.14734       34.39274
C         24.46242       68.93779       34.27956
C         24.43577       66.89138       35.57263
C         24.48783       68.29112       35.51969
O         24.55947       69.02214       36.65023
H         26.38118       66.69631       30.34785
H         25.79825       64.65588       32.54249
H         23.36285       65.27289       32.00508
H         24.00330       66.61135       30.99922
H         24.35771       68.71356       32.15416
H         24.31471       65.06684       34.45224
H         24.50752       70.01847       34.23040
H         24.45125       66.37852       36.52604
H         24.56802       68.61273       37.52732
N         25.06379       62.86461       30.81212
C         24.59936       61.86173       29.84929
C         23.13547       61.54923       30.14886
O         22.80208       61.22114       31.27966
C         25.46525       60.55342       29.87992
C         26.85535       60.72423       29.21249
C         24.75529       59.39999       29.12992
C         27.83443       61.61130       29.96760
H         25.12754       62.57650       31.80104
H         24.64009       62.25182       28.80785
H         25.58644       60.20683       30.93024
H         26.72818       61.10285       28.17363
H         27.34317       59.72606       29.14608
H         23.78463       59.14241       29.60321
H         24.57934       59.66576       28.06867
H         25.36602       58.47312       29.16705
H         27.48217       62.65602       30.02756
H         28.00337       61.20360       30.98623
H         28.80379       61.60812       29.42485
N         22.22570       61.55828       29.12976
C         20.81411       61.20790       29.26203
C         20.52001       59.91609       28.50275
O         21.44223       59.30773       27.98226
C         19.95924       62.36948       28.72103
O         20.16487       62.52178       27.34319
H         22.56105       61.78165       28.18235
H         20.54506       61.04840       30.32866
H         20.24110       63.30139       29.26150
H         18.88152       62.17222       28.90006
H         19.74646       63.38497       27.08960
N         19.24743       59.43621       28.40185
C         18.88495       58.22925       27.65716
C         19.21597       58.35021       26.17636
O         19.86238       57.45838       25.64402
C         17.38803       57.94433       27.81054
H         18.49481       59.95615       28.87762
H         19.42550       57.35500       28.08611
H         16.77996       58.77968       27.40318
H         17.12277       57.00902       27.27167
H         17.13913       57.80876       28.88450
N         18.81303       59.43760       25.45093
C         19.07717       59.61613       24.01607
C         20.56106       59.68972       23.64752
O         20.86563       59.81295       22.46893
C         18.39431       60.90210       23.52888
H         18.27485       60.16623       25.94517
H         18.62776       58.75816       23.47049
H         17.30486       60.85751       23.73792
H         18.82414       61.78756       24.04707
H         18.53012       61.02965       22.43333
N         21.53473       59.61101       24.59013
C         22.96163       59.69970       24.33789
C         23.56520       58.31806       24.52824
O         24.27660       57.86463       23.64204
C         23.53787       60.79254       25.26445
C         22.84746       62.13532       24.94032
C         23.21344       63.25134       25.86101
O         24.46657       63.69295       25.90813
O         22.35872       63.82571       26.51083
H         21.27294       59.51280       25.57106
H         23.17627       60.00589       23.28857
H         24.63888       60.88320       25.12990
H         23.33583       60.51630       26.31902
H         21.74609       62.02091       25.00156
H         23.10868       62.43500       23.90308
N         23.23161       57.53673       25.59474
C         23.65708       56.15780       25.70264
H         24.76058       56.09944       25.78652
H         23.19473       55.68792       26.59761
H         23.31876       55.58892       24.80784
H         22.60151       57.89479       26.32185
Ca        24.93089       65.64106       26.89491
O         22.43453       68.13550       27.12365
H         22.23502       68.31370       26.17124
H         22.15701       68.96173       27.59289
O         22.23696       65.69338       28.92501
H         21.49457       65.59998       28.27694
H         21.80115       65.62131       29.81060
O         22.75229       66.04663       24.54859
H         22.61322       66.84661       23.98402
H         21.84959       65.82650       24.89090

Ca 1.0



