%chk=holoCaM-CaMKII.loop4.water1.frame456.chk
%nprocshared=20
%mem=10GB
%nosave
#b3lyp/svp scf=(tight,noincore,xqc) Test 
#IOP(5/87=12) Density=Current Pop=(MK,readradii) iop(6/33=2) iop(6/42=6)

holoCaM-CaMKII.loop4.water1.frame456 

   -3  1 
C         56.24457       49.79198       18.74838
C         54.86451       49.86885       18.16775
O         53.96458       49.22813       18.68773
H         56.94740       50.46959       18.21736
H         56.21839       50.08242       19.81876
H         56.62057       48.75260       18.65457
N         54.62044       50.65608       17.08914
C         53.31410       50.76268       16.45722
C         53.05400       49.52509       15.58840
O         53.76179       49.30514       14.61551
C         53.26767       52.10413       15.71211
C         52.09927       52.24328       14.81818
O         52.30286       52.41865       13.63215
O         50.83906       52.09688       15.24373
H         55.40271       51.21091       16.70638
H         52.52999       50.83143       17.24505
H         54.17317       52.21289       15.07693
H         53.27215       52.93196       16.45481
N         52.05888       48.65532       15.93955
C         51.80005       47.35135       15.31905
C         50.45836       47.26341       14.57268
O         50.23999       46.24463       13.93090
C         52.00283       46.20730       16.37328
C         50.98817       46.27899       17.54601
C         53.44521       46.26631       16.90607
C         51.15778       45.19230       18.61513
H         51.51490       48.90521       16.76036
H         52.54988       47.18266       14.51545
H         51.87422       45.23183       15.85465
H         49.95498       46.20825       17.14275
H         51.11023       47.24218       18.06692
H         53.67932       45.39348       17.54607
H         54.17389       46.27372       16.07051
H         53.58954       47.18123       17.50633
H         50.36487       45.30065       19.38628
H         51.08431       44.18104       18.16698
H         52.12815       45.29806       19.14417
N         49.56367       48.29835       14.52297
C         48.46316       48.36710       13.54632
C         48.64625       49.55030       12.57971
O         47.86326       49.66167       11.64661
C         47.05779       48.26173       14.18685
C         46.72540       49.22480       15.27846
O         45.65276       49.12543       15.84827
O         47.59662       50.15671       15.67697
H         49.73186       49.11912       15.11585
H         48.50298       47.48054       12.87507
H         46.96284       47.24406       14.62312
H         46.28336       48.35510       13.39086
N         49.74198       50.36829       12.64263
C         50.18301       51.19573       11.52572
C         49.48902       52.52934       11.37676
O         48.95026       52.81269       10.31731
H         50.42325       50.24980       13.40237
H         50.13387       50.59799       10.59227
H         51.25610       51.42456       11.67885
N         49.51939       53.41876       12.40218
C         48.96215       54.76743       12.38050
C         49.93250       55.82378       12.96800
O         49.55131       56.98463       13.03142
C         47.61495       54.74940       13.13983
C         47.64920       54.01436       14.45150
O         46.76760       53.22204       14.73651
O         48.72061       54.09052       15.23968
H         49.91944       53.09168       13.28329
H         48.72972       55.08672       11.33861
H         46.86845       54.21895       12.51075
H         47.24241       55.78487       13.28499
N         51.19768       55.51290       13.38866
C         52.14655       56.45760       13.97605
C         51.90784       56.77053       15.44910
O         52.68390       57.53266       16.00750
H         51.54627       54.56717       13.24464
H         52.22128       57.37042       13.34784
H         53.14967       55.97535       13.97371
N         50.91047       56.17213       16.15709
C         50.71825       56.28982       17.60102
C         50.80272       54.93354       18.28149
O         50.78663       53.91586       17.60185
C         49.40135       57.03605       17.90566
C         48.09161       56.50189       17.28641
C         47.48010       55.35942       18.05932
N         46.40064       55.58953       18.84464
O         47.95043       54.23508       17.99252
H         50.28054       55.56828       15.64913
H         51.54321       56.89483       18.03297
H         49.54287       58.05267       17.48506
H         49.25848       57.14774       19.00343
H         48.16883       56.29121       16.20022
H         47.37555       57.34635       17.35149
H         46.00752       56.53890       18.93278
H         45.97068       54.83088       19.39087
N         50.96634       54.85543       19.63834
C         51.06823       53.58998       20.35941
C         50.05041       53.61590       21.49420
O         50.22082       54.40369       22.41544
C         52.52695       53.34453       20.86957
C         52.73274       51.90177       21.37053
C         53.55141       53.61224       19.75318
H         51.05984       55.72961       20.17635
H         50.84575       52.76454       19.66498
H         52.75066       54.04194       21.70582
H         52.65216       51.17776       20.52909
H         53.75053       51.79315       21.80761
H         51.99857       51.63411       22.15535
H         53.53541       54.68537       19.46880
H         54.58266       53.37247       20.08952
H         53.31868       52.99846       18.85805
N         48.95271       52.80398       21.48313
C         47.97440       52.75856       22.55786
C         48.43937       51.76556       23.60737
O         49.47216       51.14078       23.41684
C         46.52362       52.52122       22.03389
C         46.15741       51.11745       21.58994
N         46.61502       50.58395       20.43696
O         45.37003       50.47283       22.26623
H         48.84060       52.14596       20.72400
H         47.94566       53.76141       23.04061
H         46.28926       53.23447       21.21391
H         45.83762       52.77224       22.87076
H         47.21452       51.12163       19.80542
H         46.32293       49.63799       20.14634
N         47.76737       51.61375       24.77718
C         48.24966       50.74654       25.85216
C         48.25714       49.25523       25.47048
O         49.01819       48.49960       26.06078
C         47.38385       50.97989       27.10000
C         47.76661       50.04883       28.20987
C         48.98174       50.18838       28.89958
C         46.91049       48.98291       28.51353
C         49.33396       49.25601       29.88085
C         47.27101       48.04711       29.47518
C         48.48691       48.17463       30.15892
O         48.85373       47.25353       31.06962
H         46.91955       52.18249       24.92731
H         49.29681       51.04708       26.08643
H         46.33059       50.78983       26.79943
H         47.44941       52.03734       27.43935
H         49.65472       51.00748       28.67233
H         45.97853       48.85592       27.97601
H         50.27286       49.36232       30.40940
H         46.60748       47.21661       29.67435
H         48.31793       46.46363       31.23194
N         47.41942       48.76109       24.52077
C         47.41353       47.36865       24.05555
C         48.74077       47.03584       23.40016
O         49.22646       45.91817       23.51077
C         46.27648       47.22684       23.01983
C         45.99807       45.81486       22.48506
C         45.57780       44.86406       23.57002
O         46.14203       43.78951       23.69706
O         44.55983       45.18245       24.39327
H         46.75943       49.42013       24.08950
H         47.21775       46.68478       24.91223
H         46.50208       47.88674       22.15356
H         45.33833       47.59400       23.48975
H         46.87465       45.41403       21.93076
H         45.15440       45.90564       21.76754
N         49.36045       47.99984       22.67125
C         50.63948       47.85318       22.00032
C         51.79248       48.08095       22.97060
O         52.91409       47.70684       22.65743
C         50.69845       48.88035       20.85040
C         49.51145       48.68117       19.88943
C         49.52444       49.64449       18.75282
O         49.45945       49.23434       17.61398
O         49.53655       50.96095       18.96601
H         48.89512       48.91293       22.60332
H         50.70822       46.82799       21.56955
H         51.66110       48.79548       20.30549
H         50.62508       49.90229       21.28493
H         48.55307       48.81462       20.42115
H         49.51229       47.65043       19.49513
N         51.59321       48.72680       24.15499
C         52.63341       48.96024       25.12992
H         53.45964       49.55003       24.68257
H         52.21266       49.53526       25.98530
H         53.01501       47.99240       25.51586
H         50.66617       49.09571       24.37871
Ca        48.98654       51.72809       16.40045
O         45.94626       51.76497       17.67565
H         45.15774       51.86556       18.26308
H         45.99958       50.79037       17.53358

Ca 1.0



