%chk=holoCaM-CaMKII.loop1.water2.frame436.chk
%nprocshared=20
%mem=10GB
%nosave
#b3lyp/svp scf=(tight,noincore,xqc) Test 
#IOP(5/87=12) Density=Current Pop=(MK,readradii) iop(6/33=2) iop(6/42=6)

holoCaM-CaMKII.loop1.water2.frame436 

   0  1 
C         73.61722       72.64347       30.00674
C         75.00773       73.20329       29.93369
O         75.86587       72.68631       30.62157
H         72.92203       73.17846       29.32652
H         73.63767       71.57160       29.71541
H         73.23689       72.73133       31.04567
N         75.29459       74.24003       29.09605
C         76.61167       74.85633       28.88512
C         77.11994       75.60350       30.13301
O         77.09149       76.82627       30.15889
C         76.48210       75.79334       27.65456
C         77.77256       76.42673       27.24049
O         78.83042       75.66425       26.91731
O         77.85274       77.63921       27.15532
H         74.50986       74.58952       28.52313
H         77.35104       74.07579       28.59894
H         75.72455       76.58344       27.85654
H         76.12615       75.19452       26.78903
N         77.61392       74.92039       31.20742
C         78.05748       75.54520       32.45401
C         79.43144       76.20463       32.36394
O         79.82938       76.81143       33.34897
C         78.04977       74.49270       33.58898
C         76.60857       74.08546       33.94452
C         76.57306       73.00457       35.03242
C         75.15874       72.77221       35.59681
N         74.19765       72.34019       34.58065
H         77.66079       73.89959       31.15861
H         77.33108       76.33925       32.73778
H         78.49952       74.92307       34.51040
H         78.65828       73.61014       33.28815
H         76.07746       73.71219       33.04556
H         76.08406       74.99335       34.31571
H         77.21024       73.32496       35.88506
H         76.98805       72.05663       34.62441
H         74.79395       73.70985       36.07277
H         75.22489       71.99379       36.38885
H         74.53060       71.46712       34.11234
H         73.28162       72.14762       35.04737
H         74.04365       73.09375       33.87337
N         80.20398       76.15844       31.24110
C         81.49261       76.84961       31.12197
C         81.43211       77.98388       30.10950
O         82.42148       78.69256       29.98031
C         82.63215       75.85178       30.81638
C         82.27143       74.86817       29.74036
O         82.23142       73.68053       30.01893
O         81.89309       75.26090       28.50936
H         79.85851       75.64204       30.41967
H         81.76205       77.35405       32.07606
H         82.83028       75.26936       31.74415
H         83.56958       76.39317       30.56374
N         80.30015       78.26905       29.40606
C         80.17277       79.42996       28.54714
C         81.15199       79.41856       27.40466
O         81.87905       80.39031       27.25511
H         79.46387       77.68087       29.50777
H         80.30093       80.35322       29.15379
H         79.14843       79.46047       28.12734
N         81.21458       78.36066       26.54589
C         82.08544       78.34637       25.37143
C         81.30230       78.22678       24.06549
O         81.91174       78.39488       23.01802
C         83.18196       77.26904       25.51235
C         82.70218       75.84484       25.56456
O         81.51896       75.56702       25.47265
O         83.60333       74.85675       25.71965
H         80.62009       77.54399       26.74088
H         82.62070       79.31812       25.30470
H         83.74625       77.47278       26.44829
H         83.88871       77.35814       24.65984
N         79.96116       77.96329       24.03644
C         79.16005       77.98466       22.82414
C         78.58125       76.63607       22.45697
O         77.68300       76.61489       21.62930
H         79.45013       77.76996       24.90735
H         79.72407       78.36088       21.94392
H         78.32506       78.69668       23.00328
N         79.09046       75.46721       22.95047
C         78.58710       74.15055       22.55325
C         78.23024       73.31163       23.77137
O         78.49140       73.72371       24.89037
C         79.62329       73.42471       21.65782
C         79.88113       74.18127       20.34510
O         80.82827       73.19678       22.34379
H         79.89904       75.50363       23.58243
H         77.65392       74.26328       21.95982
H         79.21238       72.43416       21.36770
H         81.31409       74.05978       22.41531
H         78.93245       74.30146       19.78018
H         80.31027       75.18703       20.54073
H         80.59670       73.61016       19.71665
N         77.57739       72.12120       23.60818
C         77.14836       71.27456       24.71845
C         77.72144       69.87772       24.52093
O         77.35560       69.21012       23.56416
C         75.58984       71.26018       24.78041
C         75.06265       72.69852       25.03741
C         75.07701       70.29024       25.86430
C         73.54519       72.83720       24.91476
H         77.32716       71.82290       22.65401
H         77.52031       71.68039       25.68508
H         75.21069       70.91082       23.79375
H         75.49128       73.39431       24.28608
H         75.38487       73.03812       26.04558
H         73.97049       70.23832       25.86570
H         75.42905       69.25827       25.66727
H         75.42544       70.60474       26.87018
H         73.26277       73.89927       25.07641
H         73.21844       72.53794       23.89600
H         73.01081       72.22927       25.67029
N         78.64605       69.38062       25.39199
C         79.21702       68.03769       25.27130
C         78.22282       66.98957       25.76093
O         77.16424       67.34930       26.24678
C         80.54027       67.93312       26.08261
C         81.59373       68.91550       25.56385
O         80.29344       68.19085       27.43723
H         78.97484       69.99291       26.14966
H         79.46930       67.84250       24.20542
H         80.94926       66.90436       25.97141
H         81.14296       68.03313       27.92521
H         81.24080       69.95201       25.71039
H         82.54082       68.79235       26.13126
H         81.80066       68.73922       24.48831
N         78.51732       65.66055       25.69041
C         77.67580       64.61734       26.28580
C         77.62265       64.79800       27.79931
O         76.54099       64.81240       28.36884
C         78.20627       63.20129       25.94237
C         78.10145       62.91301       24.43932
O         79.53823       63.05548       26.36488
H         79.39788       65.38540       25.23091
H         76.64146       64.67811       25.87660
H         77.55896       62.46477       26.47557
H         79.72178       62.08097       26.41138
H         78.72267       63.61684       23.84804
H         78.44676       61.87854       24.23016
H         77.04479       62.99938       24.10690
N         78.77809       65.00633       28.49145
C         78.88550       65.26335       29.92980
C         77.90901       66.33795       30.37213
O         77.13141       66.09631       31.28505
C         80.35693       65.66787       30.21315
C         80.72640       66.17876       31.61031
C         80.44147       65.18885       32.74105
C         81.12609       65.60669       34.05825
N         80.74614       66.94871       34.50562
H         79.64579       65.04706       27.93436
H         78.64919       64.33686       30.49832
H         80.63364       66.48946       29.52288
H         81.00450       64.79736       29.96753
H         80.19985       67.13734       31.80805
H         81.81970       66.38556       31.58217
H         80.84339       64.18911       32.46873
H         79.34288       65.10089       32.88214
H         82.23079       65.57158       33.92347
H         80.85707       64.86586       34.84246
H         81.19077       67.13203       35.43424
H         81.10058       67.67237       33.83942
H         79.70834       67.02348       34.60097
N         77.88624       67.54389       29.75354
C         76.99351       68.63224       30.13044
C         75.53741       68.22177       29.99317
O         74.82105       68.26857       30.98451
C         77.34457       69.89973       29.31490
C         78.73749       70.39459       29.75381
C         79.18956       71.68192       29.13835
O         79.43165       72.63004       29.86694
O         79.46309       71.79014       27.82512
H         78.54110       67.68630       28.97715
H         77.15732       68.88126       31.20430
H         76.60171       70.68419       29.54002
H         77.31093       69.69701       28.22207
H         79.51448       69.63500       29.53883
H         78.71167       70.54477       30.85642
N         75.03284       67.77363       28.81509
C         73.66374       67.32275       28.68618
H         72.96444       68.15494       28.91191
H         73.47740       66.96517       27.65134
H         73.47529       66.48035       29.38720
H         75.64122       67.72516       27.99310
Ca        80.75890       73.60232       27.47259
O         81.77641       72.16345       24.81113
H         82.00887       73.11245       24.67331
H         82.62298       71.67755       24.64652
O         82.87990       71.23828       27.66565
H         82.98902       71.61108       28.57542
H         83.54738       71.72280       27.11803

Ca 1.0



