%chk=holoCaM.loop1.water2.frame216.chk
%nprocshared=20
%mem=10GB
%nosave
#b3lyp/svp scf=(tight,noincore,xqc) Test 
#IOP(5/87=12) Density=Current Pop=(MK,readradii) iop(6/33=2) iop(6/42=6)

holoCaM.loop1.water2.frame216 

   0  1 
C         35.12152       59.51214       23.20175
C         35.36351       58.50918       24.28546
O         35.10987       58.80137       25.44531
H         36.07663       59.73041       22.68087
H         34.39425       59.09528       22.47256
H         34.70902       60.45367       23.62078
N         35.83298       57.27500       23.96263
C         36.03426       56.22502       24.94899
C         37.17227       56.60012       25.89833
O         38.32435       56.60096       25.48780
C         36.28496       54.90107       24.20220
C         36.39592       53.70008       25.07278
O         36.53696       52.61219       24.55168
O         36.33974       53.79420       26.40812
H         35.99533       57.06651       22.96419
H         35.08108       56.11280       25.51293
H         37.20838       54.97906       23.58855
H         35.42452       54.72441       23.51915
N         36.89428       57.01657       27.16802
C         37.90078       57.52763       28.09569
C         38.83128       56.45837       28.66093
O         39.87316       56.82887       29.18344
C         37.21999       58.31143       29.25355
C         36.42840       57.42125       30.23732
C         35.65077       58.25959       31.26243
C         34.92833       57.35926       32.27755
N         34.14986       58.15381       33.22841
H         35.90778       57.10540       27.42768
H         38.50755       58.26799       27.52780
H         36.53674       59.06393       28.79988
H         37.99116       58.86438       29.83333
H         37.13774       56.75402       30.77102
H         35.70198       56.78960       29.69274
H         34.90105       58.88247       30.72583
H         36.34912       58.93080       31.80783
H         35.68153       56.75690       32.83358
H         34.24573       56.66053       31.74450
H         34.77260       58.81972       33.74088
H         33.40257       58.68500       32.72485
H         33.69830       57.51358       33.92130
N         38.46243       55.14339       28.72547
C         39.24382       54.12273       29.43375
C         39.52270       52.86095       28.60403
O         40.13364       51.94333       29.13411
C         38.57314       53.82062       30.79536
C         37.17568       53.27389       30.74431
O         36.51970       53.04008       31.89668
O         36.62320       53.04638       29.68367
H         37.53672       54.88324       28.36251
H         40.24392       54.52692       29.70386
H         38.53570       54.77184       31.37056
H         39.20558       53.10974       31.36886
N         39.18942       52.77186       27.28492
C         39.58569       51.67077       26.41448
C         38.90099       50.34235       26.67406
O         39.58929       49.34887       26.85840
H         38.73485       53.57291       26.83083
H         40.69059       51.55040       26.45742
H         39.32726       51.94821       25.36975
N         37.54495       50.23973       26.61426
C         36.80649       48.97535       26.63232
C         35.91284       48.83399       25.38873
O         35.08711       47.93182       25.35471
C         36.01488       48.83663       27.94951
C         35.15766       50.01421       28.28680
O         35.33717       50.65750       29.45389
O         34.28691       50.38430       27.52567
H         36.99805       51.10614       26.51347
H         37.49014       48.09779       26.61835
H         36.74106       48.70410       28.77966
H         35.38580       47.92052       27.91002
N         36.07192       49.64045       24.29766
C         35.29161       49.52934       23.07277
C         33.84418       49.98365       23.17436
O         33.17485       49.91223       22.15183
H         36.84809       50.31030       24.28296
H         35.33481       48.48086       22.70461
H         35.76437       50.17255       22.29777
N         33.27715       50.45331       24.32788
C         31.87428       50.87105       24.41515
C         31.73374       52.30058       24.93914
O         32.72148       52.90377       25.33890
C         31.06795       49.87979       25.29192
C         31.11582       48.44376       24.74027
O         31.49856       49.91647       26.62840
H         33.84506       50.49543       25.17971
H         31.41536       50.85757       23.40176
H         29.99944       50.18239       25.28222
H         32.28473       49.32044       26.71746
H         32.15680       48.05407       24.73646
H         30.49909       47.77827       25.38069
H         30.71983       48.41267       23.70419
N         30.51203       52.91316       24.91526
C         30.24648       54.29325       25.32701
C         29.10111       54.31574       26.35111
O         28.06056       53.71986       26.10698
C         29.91189       55.14406       24.06214
C         31.08274       55.15857       23.03206
C         29.50271       56.58745       24.41466
C         32.38062       55.83524       23.50668
H         29.71905       52.38720       24.51480
H         31.14263       54.75337       25.79166
H         29.03817       54.67468       23.55781
H         30.74479       55.69138       22.11668
H         31.32248       54.11709       22.73023
H         28.60207       56.59857       25.06125
H         30.31417       57.12052       24.94418
H         29.25624       57.15146       23.48981
H         33.13829       55.78430       22.69627
H         32.21913       56.90726       23.73982
H         32.80886       55.33332       24.39544
N         29.22049       55.04619       27.49795
C         28.22123       55.17513       28.55755
C         27.67789       56.60257       28.59254
O         28.02862       57.40370       27.73768
C         28.86493       54.81221       29.93042
C         29.28558       53.33791       29.99392
O         29.92742       55.69479       30.22473
H         30.06836       55.59611       27.62236
H         27.35757       54.49791       28.37846
H         28.12665       54.91670       30.74898
H         30.79251       55.21834       30.14591
H         28.40075       52.68161       29.85413
H         30.02434       53.12194       29.20350
H         29.73407       53.11512       30.98693
N         26.81668       56.98753       29.57813
C         26.24878       58.32953       29.71512
C         27.32635       59.40399       29.74940
O         27.22365       60.35889       28.99333
C         25.37423       58.43595       30.99467
C         24.13500       57.53454       30.93004
O         26.13498       58.11120       32.13150
H         26.55903       56.28736       30.28562
H         25.59233       58.54034       28.84055
H         25.01876       59.49127       31.06663
H         25.67965       58.51721       32.91436
H         23.51497       57.80139       30.04876
H         24.40692       56.46136       30.86743
H         23.52331       57.67979       31.84558
N         28.38152       59.31764       30.60545
C         29.43899       60.32481       30.68432
C         30.16971       60.44617       29.35773
O         30.26843       61.54553       28.82964
C         30.45831       59.95961       31.79158
C         29.86370       59.90546       33.21395
C         29.41542       61.27810       33.74040
C         28.86384       61.15767       35.16821
N         28.51960       62.47096       35.71212
H         28.43876       58.48853       31.21342
H         28.99674       61.31331       30.93090
H         31.29241       60.69650       31.79126
H         30.89140       58.96173       31.56118
H         30.65880       59.52626       33.89255
H         29.01812       59.18805       33.25572
H         28.62192       61.70964       33.09566
H         30.29092       61.96370       33.74055
H         29.62461       60.68340       35.82717
H         27.95729       60.51152       35.15755
H         27.81146       62.94333       35.10475
H         28.11909       62.34968       36.67043
H         29.37891       63.06378       35.77997
N         30.70947       59.34446       28.76377
C         31.47750       59.38899       27.51595
C         30.63728       59.86073       26.32679
O         31.20922       60.10135       25.27229
C         32.04106       57.98511       27.19343
C         32.97429       57.42568       28.28921
C         33.19554       55.94547       28.12055
O         32.24962       55.18479       28.16061
O         34.41349       55.40885       28.00487
H         30.57083       58.44073       29.23847
H         32.32332       60.09835       27.65497
H         32.58674       57.97973       26.22437
H         31.16209       57.33058       27.08459
H         32.52426       57.53691       29.29411
H         33.92707       57.99355       28.28846
N         29.28249       59.99265       26.40366
C         28.47160       60.44612       25.29588
H         27.39958       60.44815       25.59280
H         28.75982       61.48052       25.01435
H         28.59539       59.76749       24.42643
H         28.79150       59.74941       27.26705
Ca        34.34273       53.16307       28.01382
O         33.45643       53.91601       30.92275
H         33.96842       53.07043       30.87102
H         32.58538       53.65184       31.31160
O         32.22094       51.63654       29.07457
H         31.65049       51.35923       29.83305
H         31.59670       51.78872       28.32183

Ca 1.0



