%chk=holoCaM-CaMKII.loop2.water1.frame178.chk
%nprocshared=20
%mem=10GB
%nosave
#b3lyp/svp scf=(tight,noincore,xqc) Test 
#IOP(5/87=12) Density=Current Pop=(MK,readradii) iop(6/33=2) iop(6/42=6)

holoCaM-CaMKII.loop2.water1.frame178 

   -2  1 
C        109.49792       61.81974       14.09736
C        110.15785       63.16924       14.11701
O        110.27499       63.79538       13.07384
H        108.45999       61.91557       13.71851
H        110.07214       61.13242       13.44269
H        109.45663       61.37355       15.11516
N        110.61796       63.67865       15.28938
C        111.27539       64.97405       15.41651
C        112.55948       64.99261       14.59003
O        113.38724       64.11215       14.78043
C        111.56254       65.21029       16.91508
C        112.08979       66.56248       17.25802
O        112.24456       67.42193       16.41089
O        112.37679       66.83119       18.53946
H        110.48577       63.11051       16.14178
H        110.57554       65.76786       15.07235
H        112.28186       64.44538       17.27908
H        110.61283       65.09787       17.48346
N        112.79081       65.96773       13.65724
C        113.96634       65.98599       12.78272
C        114.96453       67.08519       13.13347
O        116.04988       67.08019       12.56927
C        113.51257       66.11540       11.32657
H        112.10449       66.72778       13.56118
H        114.52283       65.03002       12.89142
H        112.97851       67.07966       11.17693
H        114.38409       66.08108       10.63888
H        112.82325       65.28451       11.06656
N        114.69622       68.02204       14.08346
C        115.67285       68.97843       14.60492
C        115.93026       68.72224       16.09164
O        116.74695       69.42780       16.66775
C        115.22194       70.43460       14.32488
C        113.76196       70.65478       14.60768
O        113.01910       70.96852       13.69065
O        113.22984       70.36948       15.80889
H        113.76146       68.03626       14.50858
H        116.66363       68.85148       14.11452
H        115.37994       70.63576       13.24119
H        115.85618       71.15408       14.88623
N        115.32706       67.69563       16.76594
C        115.63001       67.33385       18.14039
C        115.25819       68.35515       19.20118
O        115.54407       68.07196       20.35635
H        114.68423       67.06443       16.27420
H        116.71892       67.12268       18.21191
H        115.09296       66.39099       18.38521
N        114.66113       69.55531       18.92898
C        114.44533       70.55604       19.97666
C        113.45365       70.12845       21.06080
O        113.49345       70.70934       22.13584
C        114.07201       71.93640       19.39601
C        112.75752       72.00266       18.65575
N        112.33127       73.18908       18.16800
O        112.07494       71.00388       18.49090
H        114.43399       69.79807       17.95732
H        115.43277       70.69448       20.47340
H        114.87537       72.26011       18.69851
H        114.03358       72.66488       20.23419
H        112.89241       74.04280       18.29987
H        111.43644       73.26035       17.66617
N        112.54764       69.13028       20.85784
C        111.66950       68.59898       21.89379
C        110.18867       68.69238       21.56942
O        109.41299       68.09899       22.30663
H        112.49956       68.69400       19.93346
H        111.84466       69.08009       22.87953
H        111.92013       67.52173       21.99932
N        109.70776       69.41618       20.51837
C        108.29059       69.48116       20.15292
C        108.09947       69.01566       18.71543
O        109.07720       68.66932       18.06184
C        107.74131       70.91127       20.38806
C        107.67379       71.22842       21.88725
O        108.54759       71.85418       19.73197
H        110.36736       69.95913       19.94592
H        107.68439       68.78637       20.77626
H        106.70041       70.96960       19.99839
H        108.04373       72.70982       19.72382
H        107.00972       70.49710       22.39815
H        108.68042       71.18933       22.35191
H        107.24571       72.24165       22.04134
N        106.84907       68.94290       18.16901
C        106.58314       68.41776       16.83433
C        106.00326       69.52415       15.95693
O        104.88785       69.96752       16.19729
C        105.63439       67.17870       16.94548
C        106.30153       66.06614       17.80107
C        105.24408       66.63435       15.56138
C        105.39823       64.85849       18.07048
H        106.03705       69.23872       18.73275
H        107.52971       68.07358       16.36272
H        104.69973       67.50619       17.45407
H        106.57593       66.48189       18.79347
H        107.23326       65.71608       17.30406
H        104.50465       65.81399       15.64452
H        104.75064       67.41920       14.95984
H        106.13606       66.25695       15.02491
H        104.46802       65.18054       18.58471
H        105.13769       64.32104       17.13678
H        105.93310       64.13810       18.72469
N        106.73058       70.01458       14.91080
C        106.24560       71.00563       13.94684
C        105.16620       70.39975       13.06056
O        104.83571       69.24326       13.23212
C        107.41114       71.47571       13.04320
C        108.48709       72.16915       13.82365
O        108.20252       73.29690       14.50250
O        109.62782       71.73609       13.81980
H        107.68819       69.66618       14.79259
H        105.83956       71.88772       14.48892
H        107.05223       72.21045       12.29553
H        107.83474       70.60195       12.49818
N        104.57334       71.13216       12.07386
C        103.57854       70.56740       11.16486
C        104.16006       69.46752       10.26677
O        103.59902       68.37822       10.30098
C        102.87061       71.69055       10.37539
C        101.72950       71.19610        9.50752
C        101.66829       71.56128        8.15114
C        100.69980       70.39448       10.04238
C        100.60239       71.13623        7.35046
C         99.64735       69.95791        9.23339
C         99.59598       70.33151        7.88976
H        104.81885       72.12806       11.98198
H        102.78796       70.11277       11.79839
H        103.60093       72.26905        9.77358
H        102.43410       72.38943       11.12174
H        102.43458       72.18974        7.71541
H        100.70290       70.09667       11.08154
H        100.55446       71.43343        6.31106
H         98.86767       69.33369        9.65146
H         98.77374       70.00057        7.26844
N        105.26854       69.61074        9.46336
C        105.80313       68.53994        8.62172
C        106.46094       67.40775        9.41131
O        106.92153       66.46003        8.79276
C        106.80341       69.26193        7.71508
C        107.33604       70.33405        8.63763
C        106.05881       70.81948        9.32396
H        105.00776       68.09549        7.98274
H        107.56298       68.61246        7.22801
H        106.23341       69.78782        6.91550
H        107.97750       69.82824        9.39633
H        107.93110       71.13517        8.15052
H        106.34787       71.27756       10.28525
H        105.49963       71.53930        8.69045
N        106.49742       67.41456       10.77111
C        106.97236       66.30745       11.58749
C        105.76524       65.45783       11.94921
O        105.80627       64.25587       11.72501
C        107.78014       66.86873       12.78589
C        109.03577       67.57788       12.24320
C        109.89554       68.29670       13.24026
O        110.87321       68.89641       12.82259
O        109.63588       68.33419       14.56082
H        106.09241       68.20659       11.27872
H        107.66104       65.64531       11.01454
H        108.09141       66.04517       13.46563
H        107.15293       67.58664       13.35629
H        108.72485       68.34757       11.50675
H        109.66959       66.82661       11.72259
N        104.60910       66.03312       12.38434
C        103.36622       65.31577       12.57786
H        102.60618       65.72294       11.87460
H        103.46739       64.22875       12.38278
H        103.00315       65.46908       13.61366
H        104.57358       67.04515       12.52296
Ca       111.07380       69.74234       15.59937
O        109.34186       71.64196       16.95561
H        109.53596       72.53857       16.58635
H        108.37035       71.65732       17.14060

Ca 1.0



