%chk=holoCaM.loop2.water1.frame250.chk
%nprocshared=20
%mem=10GB
%nosave
#b3lyp/svp scf=(tight,noincore,xqc) Test 
#IOP(5/87=12) Density=Current Pop=(MK,readradii) iop(6/33=2) iop(6/42=6)

holoCaM.loop2.water1.frame250 

   -2  1 
C         79.29589       88.06891       51.06943
C         79.59734       88.74969       49.76768
O         78.67577       89.07911       49.03403
H         78.20162       87.93579       51.20623
H         79.78084       87.06973       51.08345
H         79.69269       88.67711       51.90885
N         80.89253       88.98705       49.41548
C         81.28179       89.62428       48.15995
C         80.78500       88.74297       47.01598
O         81.21657       87.60091       46.93847
C         82.83351       89.80604       48.15625
C         83.57359       90.58445       47.07380
O         84.79218       90.52515       47.07599
O         82.98700       91.35776       46.13707
H         81.62809       88.69765       50.07904
H         80.80645       90.61190       48.15293
H         83.26371       88.78146       48.16718
H         83.12247       90.29715       49.11076
N         79.84164       89.18065       46.12724
C         79.27556       88.33433       45.07694
C         79.80129       88.70407       43.70262
O         79.52546       87.97244       42.76151
C         77.74361       88.39906       45.11809
H         79.50250       90.14754       46.19454
H         79.58065       87.27829       45.24035
H         77.39332       89.43677       44.92453
H         77.30135       87.72939       44.34895
H         77.37229       88.07975       46.11473
N         80.60057       89.79109       43.51433
C         81.27803       90.09561       42.26350
C         82.80092       90.10891       42.46766
O         83.51368       90.38920       41.51441
C         80.68979       91.38893       41.66065
C         80.75362       92.57853       42.56930
O         79.72821       93.11673       42.95602
O         81.93962       93.07655       42.93681
H         80.77814       90.43388       44.29741
H         81.08338       89.30735       41.50292
H         79.61994       91.19008       41.42595
H         81.20191       91.63015       40.70458
N         83.37315       89.72890       43.65652
C         84.80718       89.56792       43.86618
C         85.63520       90.84261       43.87493
O         86.84544       90.72174       44.00126
H         82.77677       89.42534       44.43762
H         85.19960       88.88405       43.08278
H         84.96960       89.06871       44.84588
N         85.09383       92.08352       43.72065
C         85.91701       93.28273       43.57165
C         86.67128       93.67107       44.83937
O         87.85522       93.96271       44.74313
C         85.11311       94.46250       42.99163
C         84.22429       95.18396       43.96735
N         84.39254       96.51075       44.16935
O         83.34645       94.58602       44.56849
H         84.07868       92.16743       43.60726
H         86.65485       93.06656       42.76521
H         84.51218       94.09881       42.12950
H         85.84384       95.19576       42.58591
H         85.12286       97.03933       43.67073
H         83.78167       97.02101       44.81394
N         86.05852       93.67479       46.06162
C         86.74436       94.01671       47.30297
C         85.98367       94.98923       48.19186
O         86.44868       95.20984       49.30029
H         85.08602       93.33984       46.12823
H         87.76617       94.41441       47.11840
H         86.84975       93.07940       47.89003
N         84.80678       95.57591       47.81697
C         83.98285       96.37516       48.73032
C         82.62566       95.70050       48.90036
O         82.38763       94.66460       48.29521
C         83.85036       97.83805       48.23989
C         85.21287       98.54095       48.20771
O         83.25565       97.87032       46.97383
H         84.44279       95.41918       46.86866
H         84.43970       96.41247       49.74315
H         83.20749       98.39651       48.95656
H         83.01230       98.81528       46.78904
H         85.90636       98.03667       47.50320
H         85.08570       99.59717       47.88713
H         85.66203       98.54242       49.22421
N         81.69500       96.22588       49.74944
C         80.41357       95.58903       50.03401
C         79.28534       96.47762       49.53230
O         79.10920       97.58008       50.03069
C         80.33908       95.27638       51.56345
C         81.36461       94.15560       51.89275
C         78.92431       94.87540       52.01425
C         81.47044       93.80272       53.37685
H         81.90963       97.10254       50.24604
H         80.32390       94.62228       49.49304
H         80.60164       96.20129       52.12508
H         82.37601       94.47360       51.56140
H         81.09445       93.23252       51.33222
H         78.59883       93.94651       51.51067
H         78.88166       94.72716       53.11157
H         78.20498       95.69084       51.80425
H         82.24275       93.01523       53.50815
H         81.76672       94.69573       53.96514
H         80.51780       93.39397       53.76948
N         78.47681       96.03227       48.52097
C         77.32293       96.77336       48.01136
C         76.20972       96.76954       49.04914
O         76.38141       96.15618       50.08979
C         76.77765       96.12759       46.71252
C         77.78497       96.07018       45.59564
O         78.88327       95.30071       45.70457
O         77.58438       96.68227       44.55869
H         78.68992       95.11709       48.10394
H         77.63313       97.81554       47.77373
H         75.91478       96.72860       46.35485
H         76.42143       95.09549       46.91681
N         75.02929       97.41983       48.84689
C         73.94753       97.37322       49.82589
C         73.35935       95.96031       49.95846
O         73.33925       95.47577       51.07914
C         72.87862       98.45190       49.54378
C         71.86236       98.56185       50.66057
C         72.27176       98.87678       51.97169
C         70.49390       98.37233       50.40207
C         71.33302       98.99128       52.99948
C         69.55696       98.49447       51.43430
C         69.97637       98.80210       52.73139
H         74.90942       97.98634       47.99247
H         74.39010       97.65994       50.80488
H         72.37412       98.27563       48.57905
H         73.38796       99.43628       49.46232
H         73.31581       99.03882       52.20498
H         70.15002       98.13609       49.40301
H         71.65894       99.23151       54.00358
H         68.50410       98.35307       51.22868
H         69.25079       98.89725       53.52876
N         72.89888       95.21362       48.89376
C         72.42313       93.83093       49.00246
C         73.32762       92.94900       49.83415
O         72.86033       92.19168       50.67338
C         72.47425       93.32644       47.54624
C         72.10896       94.56575       46.77861
C         72.93075       95.62788       47.50268
H         71.38008       93.82299       49.38660
H         73.52221       93.08788       47.24575
H         71.85423       92.42741       47.34269
H         72.28502       94.51645       45.68222
H         71.02880       94.75929       46.96417
H         73.98428       95.62351       47.15848
H         72.46005       96.60336       47.30063
N         74.66084       93.00877       49.60989
C         75.66272       92.16490       50.23779
C         75.67206       92.40911       51.73516
O         75.51128       91.46475       52.49516
C         77.02376       92.42881       49.55028
C         76.90144       92.11467       48.03428
C         78.12434       92.38743       47.23877
O         79.31083       92.49915       47.83858
O         78.07592       92.29805       46.02212
H         74.97363       93.72007       48.93429
H         75.42168       91.09342       50.05158
H         77.81375       91.79387       50.00979
H         77.30564       93.49612       49.67452
H         76.11611       92.71780       47.55038
H         76.62912       91.04671       47.88911
N         75.78031       93.67141       52.22649
C         75.68870       93.97823       53.63583
H         74.70799       93.63629       54.03140
H         76.51291       93.48693       54.19144
H         75.75726       95.07809       53.78407
H         75.88488       94.45138       51.57376
Ca        80.96062       92.18787       46.38474
O         81.19854       96.61251       44.92123
H         80.55351       96.71761       44.17813
H         81.22499       97.50268       45.35158

Ca 1.0



