%chk=holoCaM.loop4.water3.frame331.chk
%nprocshared=20
%mem=10GB
%nosave
#b3lyp/svp scf=(tight,noincore,xqc) Test 
#IOP(5/87=12) Density=Current Pop=(MK,readradii) iop(6/33=2) iop(6/42=6)

holoCaM.loop4.water3.frame331 

   -3  1 
C         24.79060       23.50420       -8.38735
C         25.41614       22.31285       -7.72325
O         24.68290       21.41682       -7.33871
H         24.07371       23.98554       -7.68936
H         25.55279       24.25219       -8.68890
H         24.24301       23.17274       -9.29528
N         26.76794       22.23643       -7.55043
C         27.44801       21.09907       -6.92911
C         28.92832       21.41293       -6.78449
O         29.59373       21.61237       -7.79212
C         27.23766       19.81275       -7.77076
C         27.99577       18.59506       -7.28906
O         28.75584       18.03337       -8.06126
O         27.83596       18.07750       -6.05081
H         27.33721       23.03682       -7.86792
H         27.01919       20.95066       -5.91996
H         27.54856       20.02390       -8.81855
H         26.16410       19.54756       -7.79950
N         29.50298       21.47965       -5.54676
C         30.91651       21.78092       -5.32659
C         31.66307       20.61457       -4.68117
O         32.87479       20.72386       -4.55720
C         31.09421       23.08689       -4.48124
C         30.49596       22.95444       -3.05325
C         30.49616       24.29049       -5.23172
C         30.80811       24.13368       -2.12854
H         28.90823       21.31016       -4.72547
H         31.41875       21.94719       -6.30489
H         32.18755       23.26796       -4.37860
H         30.91004       22.04756       -2.56309
H         29.39813       22.85384       -3.11421
H         30.70712       25.24072       -4.70095
H         30.95191       24.37531       -6.24045
H         29.39609       24.18164       -5.34268
H         30.37560       23.93480       -1.12426
H         31.90582       24.25968       -2.01985
H         30.36036       25.07678       -2.50043
N         31.02833       19.49082       -4.22250
C         31.73381       18.39399       -3.55491
C         31.50999       17.02869       -4.21245
O         32.11752       16.06770       -3.76037
C         31.38011       18.39540       -2.05108
C         29.93183       18.17592       -1.70131
O         29.08714       17.96869       -2.55695
O         29.56544       18.21575       -0.40693
H         30.00558       19.42880       -4.29297
H         32.83033       18.56911       -3.60187
H         31.67643       19.38482       -1.63779
H         31.98259       17.61937       -1.53254
N         30.69159       16.86165       -5.29102
C         30.52834       15.60239       -6.00636
C         30.00322       14.47549       -5.14484
O         30.66800       13.45301       -5.05511
H         30.19133       17.67220       -5.66984
H         31.50760       15.30847       -6.44369
H         29.81699       15.75411       -6.84649
N         28.81679       14.58880       -4.48450
C         28.26272       13.52675       -3.64092
C         26.83638       13.12874       -4.03242
O         26.25546       12.30341       -3.34038
C         28.38816       13.92800       -2.15390
C         27.67347       15.17943       -1.72436
O         26.99865       15.83363       -2.50106
O         27.79913       15.59236       -0.44986
H         28.30972       15.48336       -4.55543
H         28.87003       12.59925       -3.73301
H         29.46935       14.07377       -1.93834
H         28.03181       13.08723       -1.51938
N         26.22142       13.62347       -5.14757
C         24.88250       13.22929       -5.57565
C         23.74674       13.76095       -4.71316
O         22.60359       13.48993       -5.05185
H         26.74218       14.25325       -5.77168
H         24.82664       12.12104       -5.64226
H         24.71059       13.63572       -6.59633
N         23.96640       14.53419       -3.61260
C         22.90877       15.12986       -2.79447
C         23.06989       16.64420       -2.77875
O         24.02490       17.13372       -3.36671
C         22.90389       14.49009       -1.38869
C         24.25736       14.54549       -0.65636
C         24.23781       13.83756        0.67697
N         25.37674       13.73949        1.40003
O         23.20861       13.33446        1.10449
H         24.93298       14.74588       -3.34705
H         21.91059       14.92523       -3.24061
H         22.63521       13.41803       -1.51737
H         22.11542       14.96553       -0.76615
H         24.55895       15.60096       -0.50494
H         25.02511       14.03059       -1.26788
H         26.25727       14.14264        1.05071
H         25.38346       13.24686        2.30506
N         22.14945       17.46159       -2.17815
C         22.22155       18.91800       -2.29787
C         22.38792       19.56660       -0.92865
O         21.48475       19.48165       -0.10779
C         20.96300       19.47700       -3.02926
C         21.18193       20.94563       -3.41514
C         20.60824       18.68390       -4.29699
H         21.34797       17.04596       -1.67961
H         23.09906       19.19219       -2.92107
H         20.08207       19.40383       -2.35345
H         22.04315       21.04452       -4.11271
H         20.28075       21.35568       -3.91518
H         21.38489       21.54683       -2.51328
H         21.43996       18.69530       -5.02529
H         20.36406       17.63114       -4.04466
H         19.70814       19.12326       -4.78007
N         23.53330       20.24400       -0.62435
C         23.75349       20.96287        0.63490
C         22.84866       22.19495        0.70723
O         22.16223       22.47786       -0.25982
C         25.24933       21.37245        0.69659
C         25.69988       22.03092        1.97356
N         25.61053       21.38393        3.15785
O         26.17611       23.15510        1.93456
H         24.29037       20.23701       -1.32255
H         23.53468       20.27134        1.47737
H         25.46544       22.04635       -0.15722
H         25.86949       20.46283        0.57414
H         25.22705       20.42964        3.21042
H         25.93095       21.83966        4.02514
N         22.78627       22.98006        1.82172
C         22.00422       24.21635        1.87414
C         22.57953       25.26086        0.92662
O         21.83076       25.83322        0.14676
C         21.85071       24.73072        3.33031
C         23.11328       25.13369        4.06113
C         23.60606       24.32811        5.10178
C         23.78535       26.32965        3.75107
C         24.76047       24.69586        5.79768
C         24.94125       26.69502        4.44609
C         25.43428       25.87649        5.47129
O         26.54688       26.21649        6.15227
H         23.29919       22.68698        2.66382
H         20.95862       23.99039        1.56205
H         21.35911       23.90320        3.88809
H         21.14292       25.58801        3.35861
H         23.09975       23.41020        5.37307
H         23.41386       26.98689        2.97598
H         25.12975       24.06168        6.59340
H         25.44909       27.61640        4.18949
H         27.04103       27.02586        5.95893
N         23.91952       25.53111        0.92106
C         24.55899       26.54517        0.07766
C         24.47588       26.22112       -1.41865
O         24.92242       27.02452       -2.22396
C         26.03732       26.70223        0.53423
C         26.79124       27.91486       -0.04163
C         26.12301       29.20914        0.33146
O         25.95486       29.53373        1.62826
O         25.73008       29.97141       -0.53688
H         24.50861       25.00954        1.58485
H         24.03478       27.50618        0.26858
H         26.59714       25.77111        0.29422
H         26.04967       26.82122        1.63999
H         26.89361       27.83374       -1.14178
H         27.81995       27.92354        0.37791
N         23.89423       25.07585       -1.86752
C         23.79520       24.68897       -3.26353
C         22.35586       24.85462       -3.71353
O         22.12460       25.53883       -4.70039
C         24.30058       23.24066       -3.40760
C         25.76640       23.12677       -2.95002
C         26.29118       21.72555       -3.03018
O         27.44001       21.49437       -2.69762
O         25.53357       20.72052       -3.49797
H         23.49934       24.41077       -1.19801
H         24.42593       25.33700       -3.91364
H         24.21475       22.91589       -4.46828
H         23.67732       22.56626       -2.78031
H         25.86948       23.47242       -1.90150
H         26.40069       23.77536       -3.59336
N         21.33126       24.31400       -2.99684
C         19.93113       24.50314       -3.31326
H         19.43787       25.02452       -2.46526
H         19.78108       25.10566       -4.23208
H         19.44307       23.51764       -3.44910
H         21.54125       23.77467       -2.15285
Ca        26.67735       19.00439       -4.36556
O         23.87259       19.23933       -5.61175
H         23.41254       18.80330       -6.37039
H         24.80011       19.33953       -5.93074
O         26.36280       18.30744       -0.88226
H         25.84115       17.55005       -0.51946
H         26.99846       18.52915       -0.15733
O         25.47709       16.55085       -5.73709
H         24.52475       16.48079       -5.99424
H         25.97179       16.34255       -6.56803

Ca 1.0



