%chk=holoCaM.loop4.water3.frame489.chk
%nprocshared=20
%mem=10GB
%nosave
#b3lyp/svp scf=(tight,noincore,xqc) Test 
#IOP(5/87=12) Density=Current Pop=(MK,readradii) iop(6/33=2) iop(6/42=6)

holoCaM.loop4.water3.frame489 

   -3  1 
C         39.70702       65.90791       43.54559
C         40.41910       64.70297       43.00974
O         40.28535       64.43442       41.82478
H         38.61198       65.79011       43.40896
H         39.92558       66.06597       44.62139
H         40.04536       66.80441       42.98219
N         41.19709       63.92388       43.81898
C         41.96836       62.79527       43.30804
C         42.58693       61.97080       44.43794
O         43.21071       62.51419       45.33812
C         43.06754       63.28700       42.34403
C         43.82657       62.14056       41.74661
O         45.15682       62.04941       41.92946
O         43.24178       61.29032       41.09406
H         41.24310       64.14884       44.82452
H         41.27757       62.13607       42.73399
H         43.76649       63.95991       42.88425
H         42.62336       63.85355       41.50115
N         42.48376       60.61544       44.38082
C         42.98129       59.65907       45.36644
C         44.10750       58.81814       44.76091
O         45.11562       58.60686       45.41999
C         41.81229       58.70102       45.78349
C         40.58745       59.48990       46.31157
C         42.28557       57.66369       46.82627
C         39.34715       58.61254       46.52634
H         42.00718       60.23067       43.56048
H         43.35945       60.17718       46.27661
H         41.48789       58.14809       44.87332
H         40.30220       60.25180       45.56159
H         40.84353       60.01968       47.25379
H         43.13585       57.06436       46.44156
H         42.60032       58.16974       47.76350
H         41.48720       56.93289       47.06270
H         39.50284       57.86512       47.32912
H         38.48777       59.24905       46.82418
H         39.08046       58.08479       45.58518
N         43.95554       58.25751       43.52685
C         44.80746       57.20872       42.96199
C         45.69928       57.63612       41.80203
O         46.51033       56.82394       41.37624
C         43.89285       56.04710       42.49802
C         42.88075       56.43746       41.42044
O         42.81714       57.70504       40.93647
O         42.09663       55.59621       41.01545
H         43.12586       58.53350       43.00176
H         45.50124       56.84213       43.75105
H         43.33179       55.67513       43.38294
H         44.52002       55.21134       42.11866
N         45.62740       58.86950       41.23838
C         46.50865       59.31320       40.16607
C         46.34700       58.60505       38.82680
O         47.05682       58.99525       37.90975
H         44.95409       59.54421       41.61547
H         47.56411       59.21969       40.50257
H         46.30968       60.39052       39.97801
N         45.45719       57.58949       38.60158
C         45.30399       56.96050       37.28614
C         44.64933       57.87995       36.24673
O         44.45991       57.43055       35.12437
C         44.57672       55.58908       37.38086
C         43.16695       55.59361       37.89427
O         42.58395       56.72308       38.30412
O         42.54423       54.54635       37.95903
H         44.89393       57.22942       39.38011
H         46.31659       56.69651       36.90760
H         45.16831       54.92232       38.04378
H         44.56213       55.13125       36.36760
N         44.30878       59.17808       36.51458
C         43.71501       60.05997       35.52214
C         42.23981       59.79979       35.29798
O         41.65543       60.50525       34.48816
H         44.50923       59.59382       37.43141
H         44.28858       59.99969       34.57146
H         43.79549       61.10822       35.88027
N         41.56075       58.83869       35.99185
C         40.13338       58.58821       35.84826
C         39.42857       58.76008       37.21872
O         40.02186       59.81433       37.92555
C         39.91726       57.15757       35.31851
C         40.65829       56.91515       33.99065
C         40.47224       55.51626       33.45519
N         41.09423       55.14937       32.31149
O         39.77070       54.70720       34.04576
H         42.06279       58.25753       36.66277
H         39.69372       59.31389       35.12792
H         38.83322       56.97467       35.16394
H         40.29601       56.43304       36.07422
H         41.74784       57.07039       34.14426
H         40.29957       57.64063       33.22914
H         41.69522       55.81525       31.80375
H         40.98034       54.19655       31.93530
N         37.98870       59.01429       37.01533
C         37.23022       59.45521       38.20540
C         36.46578       58.28867       38.82865
O         35.57863       57.74673       38.18295
C         36.26665       60.60017       37.78482
C         35.52563       61.17968       38.99539
C         37.02311       61.73514       37.07195
H         37.50608       58.24643       36.49515
H         37.91995       59.88284       38.95986
H         35.51549       60.19843       37.06870
H         36.24562       61.60616       39.72688
H         34.82957       61.98392       38.67543
H         34.92654       60.38981       39.48625
H         37.79578       62.17462       37.73693
H         37.51617       61.36312       36.14893
H         36.31517       62.53538       36.76704
N         36.77280       57.83792       40.07931
C         36.08476       56.70960       40.70833
C         34.67087       57.09750       41.14053
O         34.33522       58.27124       41.13529
C         36.91556       56.23492       41.93335
C         36.40692       54.98776       42.61269
N         36.32167       53.81670       41.94001
O         36.08858       55.03048       43.79130
H         37.56456       58.27430       40.57191
H         36.04557       55.88150       39.96707
H         36.97228       57.06429       42.67192
H         37.94801       56.00899       41.60354
H         36.59567       53.75443       40.94928
H         35.98239       52.96698       42.41389
N         33.79351       56.14195       41.56070
C         32.47101       56.42635       42.13110
C         32.52730       57.11630       43.50319
O         31.47012       57.44626       44.02234
C         31.60196       55.13985       42.16557
C         32.30114       53.91045       42.70934
C         32.50170       52.80730       41.85765
C         32.77462       53.84595       44.02820
C         33.17032       51.67029       42.31038
C         33.45048       52.70542       44.48037
C         33.65187       51.61473       43.61965
O         34.30752       50.51241       44.03477
H         34.08585       55.16302       41.45200
H         31.93362       57.12981       41.45619
H         31.31911       54.93249       41.11003
H         30.65188       55.32486       42.71175
H         32.14805       52.82765       40.83396
H         32.62923       54.67631       44.70127
H         33.31966       50.83494       41.63740
H         33.82082       52.67145       45.49685
H         34.66919       50.43283       44.92832
N         33.70461       57.42764       44.11658
C         33.81334       58.21895       45.34061
C         34.23794       59.63195       44.97854
O         33.61911       60.58208       45.43642
C         34.86749       57.60867       46.29523
C         34.51726       56.20655       46.80909
C         33.25799       56.20557       47.62873
O         33.17832       56.95510       48.74533
O         32.30656       55.51859       47.29456
H         34.58363       57.16878       43.65906
H         32.84174       58.28654       45.87902
H         34.99503       58.27978       47.17439
H         35.84940       57.55395       45.77444
H         35.34787       55.84727       47.45439
H         34.42843       55.50828       45.95268
N         35.28514       59.83130       44.13293
C         35.80902       61.13596       43.74147
C         34.72401       62.00074       43.12387
O         34.47740       63.08964       43.62396
C         36.96712       60.95509       42.72870
C         38.15245       60.16094       43.31404
C         39.20716       59.83907       42.29442
O         40.21235       59.01199       42.62728
O         39.13580       60.26021       41.15312
H         35.72541       58.99530       43.73432
H         36.20672       61.65483       44.64238
H         37.33527       61.95014       42.39364
H         36.57713       60.40680       41.84329
H         37.81519       59.18371       43.70269
H         38.59775       60.72897       44.15437
N         34.03385       61.57933       42.03135
C         33.01634       62.38543       41.39381
H         32.19807       62.60665       42.11073
H         33.46135       63.33550       41.02857
H         32.59186       61.83863       40.52446
H         34.23700       60.65441       41.63762
Ca        41.39935       58.80214       39.48802
O         39.49923       56.58046       39.62891
H         40.14669       55.91162       39.29564
H         39.84554       56.84683       40.51813
O         42.70827       61.45830       38.31150
H         42.21291       61.90648       37.58137
H         43.59030       61.90782       38.32808
O         39.90449       62.48340       39.62138
H         40.73759       62.18901       40.06846
H         40.18838       62.74682       38.71115

Ca 1.0



