%chk=holoCaM.loop1.water2.frame138.chk
%nprocshared=20
%mem=10GB
%nosave
#b3lyp/svp scf=(tight,noincore,xqc) Test 
#IOP(5/87=12) Density=Current Pop=(MK,readradii) iop(6/33=2) iop(6/42=6)

holoCaM.loop1.water2.frame138 

   0  1 
C         -4.50454       75.42538      100.29389
C         -4.65055       74.16090       99.49818
O         -5.67375       73.50230       99.61022
H         -3.52898       75.91925      100.09517
H         -5.31617       76.13270      100.02618
H         -4.56075       75.18978      101.37689
N         -3.64819       73.75406       98.67377
C         -3.70321       72.53788       97.87088
C         -3.86403       71.32093       98.77676
O         -3.08058       71.17313       99.70452
C         -2.40969       72.43265       97.04361
C         -2.42229       71.32266       96.04110
O         -3.52372       70.58447       95.81599
O         -1.41639       71.10858       95.39473
H         -2.80264       74.34377       98.61533
H         -4.55548       72.61953       97.16289
H         -1.54902       72.29554       97.73367
H         -2.25305       73.37445       96.47214
N         -4.86323       70.41360       98.56500
C         -5.15585       69.29970       99.46976
C         -4.83639       67.92893       98.85830
O         -4.85566       66.94539       99.58390
C         -6.65039       69.41276       99.85009
C         -7.10963       68.47147      100.96925
C         -8.60585       68.66273      101.24941
C         -9.05486       67.80065      102.43483
N        -10.48522       67.96524      102.68988
H         -5.46677       70.53836       97.74161
H         -4.52887       69.39956      100.38172
H         -7.26394       69.23724       98.93656
H         -6.84188       70.45420      100.19304
H         -6.52231       68.70188      101.88423
H         -6.94903       67.41115      100.68968
H         -9.18637       68.38139      100.34208
H         -8.81069       69.73020      101.48446
H         -8.48373       68.10344      103.34078
H         -8.84062       66.72919      102.22477
H        -10.75128       67.39207      103.52282
H        -10.70464       68.96903      102.88582
H        -11.03627       67.63810      101.86322
N         -4.55433       67.78509       97.53421
C         -4.26733       66.50744       96.87320
C         -2.94154       66.53115       96.08810
O         -2.59220       65.51161       95.50970
C         -5.46773       66.06510       95.98852
C         -5.89749       67.04611       94.92699
O         -5.36153       68.27760       94.90240
O         -6.75298       66.73113       94.11667
H         -4.58392       68.62772       96.96145
H         -4.15617       65.70202       97.63295
H         -6.34770       65.86978       96.64034
H         -5.19796       65.10163       95.50230
N         -2.12082       67.62260       96.07858
C         -0.78564       67.64937       95.49192
C         -0.71188       67.58901       93.97438
O          0.00616       66.74648       93.45633
H         -2.39260       68.46014       96.60687
H         -0.17268       66.83751       95.94146
H         -0.30855       68.61069       95.78089
N         -1.35766       68.50844       93.20331
C         -1.15898       68.67012       91.75394
C         -0.74920       70.10387       91.39426
O         -0.66601       70.41622       90.21461
C         -2.40424       68.19544       90.97345
C         -3.69879       68.62901       91.57787
O         -4.43954       67.77615       92.04165
O         -4.05710       69.91684       91.68830
H         -2.00616       69.15839       93.67426
H         -0.32901       68.02987       91.38277
H         -2.39667       67.08365       91.01627
H         -2.34484       68.47940       89.90118
N         -0.41926       71.01177       92.35428
C         -0.00361       72.37892       92.09863
C         -1.08836       73.20259       91.45232
O         -0.78943       73.91700       90.50874
H         -0.41748       70.72357       93.33498
H          0.92783       72.40147       91.49142
H          0.22472       72.85499       93.07815
N         -2.34922       73.21153       91.97245
C         -3.43476       74.08876       91.50977
C         -4.55812       74.15281       92.55018
O         -4.58499       73.34735       93.47131
C         -4.03968       73.69441       90.12463
C         -3.10645       73.79652       88.90909
O         -4.61324       72.41647       90.18160
H         -2.49412       72.62366       92.80674
H         -3.02130       75.12063       91.46363
H         -4.85595       74.41655       89.90804
H         -3.87182       71.76012       90.13176
H         -2.66786       74.81422       88.84064
H         -2.30677       73.02998       88.94195
H         -3.68587       73.60098       87.98223
N         -5.48686       75.15409       92.49529
C         -6.48120       75.38222       93.54217
C         -7.88032       75.37395       92.94185
O         -8.16349       76.19320       92.07812
C         -6.18917       76.74280       94.24845
C         -4.72017       76.87353       94.74103
C         -7.16983       77.00512       95.40650
C         -4.29005       75.87330       95.82005
H         -5.43481       75.83775       91.72431
H         -6.41940       74.59006       94.31604
H         -6.33168       77.55325       93.49869
H         -4.57182       77.89801       95.14671
H         -4.03374       76.77009       93.87337
H         -8.21383       77.02760       95.04034
H         -7.09260       76.21830       96.18369
H         -6.95915       77.98993       95.87425
H         -4.37737       74.83015       95.46603
H         -3.22561       76.05571       96.07899
H         -4.88950       75.99320       96.74429
N         -8.81927       74.48868       93.38301
C        -10.20555       74.48510       92.91489
C        -11.05101       75.43669       93.75577
O        -10.53796       76.03048       94.69193
C        -10.78985       73.04562       92.97909
C         -9.98249       72.06577       92.12752
O        -10.80938       72.59478       94.30847
H         -8.55461       73.82213       94.12157
H        -10.24601       74.82322       91.85546
H        -11.82887       73.06777       92.57850
H        -11.47636       71.86105       94.35992
H         -9.96234       72.39723       91.06852
H         -8.94540       71.98983       92.51186
H        -10.44644       71.05748       92.17494
N        -12.37975       75.60127       93.49170
C        -13.27944       76.38937       94.33783
C        -13.27160       75.84998       95.75509
O        -13.20071       76.63203       96.69227
C        -14.73533       76.36426       93.80370
C        -14.86612       77.09910       92.46613
O        -15.18400       75.03930       93.67185
H        -12.77818       75.10135       92.68386
H        -12.95287       77.45376       94.36406
H        -15.37377       76.90230       94.54504
H        -16.16994       75.07937       93.56746
H        -14.54396       78.15580       92.58180
H        -14.25520       76.61535       91.67756
H        -15.92903       77.09591       92.14276
N        -13.33415       74.50892       95.97428
C        -13.33543       73.90589       97.30055
C        -12.06202       74.26848       98.05190
O        -12.14475       74.80754       99.14657
C        -13.47758       72.36177       97.20629
C        -14.70615       71.86492       96.40607
C        -16.04623       72.38946       96.94769
C        -17.26519       71.84673       96.17855
N        -17.30555       72.30651       94.78770
H        -13.36666       73.89636       95.14871
H        -14.20653       74.29018       97.87350
H        -13.53349       71.95084       98.23818
H        -12.57547       71.92982       96.72064
H        -14.71156       70.75362       96.44225
H        -14.59616       72.14980       95.34331
H        -16.07698       73.49822       96.90149
H        -16.13849       72.07677       98.00992
H        -18.18147       72.21094       96.69387
H        -17.27346       70.73527       96.20997
H        -17.29746       73.35107       94.75634
H        -16.50383       71.92423       94.23883
H        -18.18994       71.96907       94.34380
N        -10.84248       74.00265       97.50447
C         -9.56810       74.27899       98.17016
C         -9.31003       75.76804       98.38411
O         -8.36419       76.08939       99.09077
C         -8.40190       73.70971       97.33195
C         -8.47089       72.17820       97.18031
C         -7.42869       71.62970       96.24535
O         -6.64003       72.36087       95.66793
O         -7.37918       70.30311       96.02744
H        -10.83195       73.56324       96.57613
H         -9.58082       73.77841       99.16412
H         -7.42769       73.96754       97.79860
H         -8.43873       74.19267       96.33468
H         -9.45193       71.86548       96.77269
H         -8.34384       71.71251       98.18106
N        -10.06576       76.72924       97.78195
C         -9.83757       78.15125       97.93878
H         -9.59768       78.59427       96.94905
H        -10.76047       78.62894       98.32891
H         -9.00323       78.37529       98.63533
H        -10.82617       76.45676       97.15403
Ca        -5.35820       70.01096       93.48543
O         -6.92213       71.00491       91.20427
H         -7.60186       70.28977       91.26926
H         -7.00873       71.33853       90.27741
O         -8.53476       69.20896       93.62268
H         -7.96190       68.69311       93.00234
H         -9.44017       68.83162       93.49387

Ca 1.0



