%chk=holoCaM-CaMKII.loop4.water2.frame147.chk
%nprocshared=20
%mem=10GB
%nosave
#b3lyp/svp scf=(tight,noincore,xqc) Test 
#IOP(5/87=12) Density=Current Pop=(MK,readradii) iop(6/33=2) iop(6/42=6)

holoCaM-CaMKII.loop4.water2.frame147 

   -3  1 
C         88.36168       -1.00849       74.25893
C         88.63001       -1.11976       75.72853
O         89.72979       -1.50032       76.09918
H         87.33673       -0.62930       74.06162
H         89.09029       -0.30216       73.80866
H         88.47179       -2.00486       73.78418
N         87.67055       -0.78328       76.63225
C         87.89425       -0.81624       78.07045
C         88.16029       -2.23683       78.54418
O         87.43453       -3.13883       78.14817
C         86.68225       -0.23170       78.80514
C         87.01134        0.13973       80.21735
O         86.14537        0.64238       80.90547
O         88.26360        0.03417       80.70687
H         86.75870       -0.45199       76.27940
H         88.76204       -0.15100       78.28477
H         85.82233       -0.93590       78.76439
H         86.37981        0.72013       78.31552
N         89.18369       -2.49961       79.40497
C         89.61320       -3.84488       79.77383
C         89.23531       -4.20067       81.21345
O         89.06526       -5.38360       81.47555
C         91.14427       -3.99283       79.49216
C         91.46719       -3.51112       78.04920
C         91.62594       -5.43499       79.72571
C         92.94295       -3.57944       77.66017
H         89.72015       -1.70775       79.76839
H         89.07316       -4.57582       79.13109
H         91.69711       -3.33460       80.19763
H         91.18426       -2.44171       77.96562
H         90.87433       -4.09064       77.30950
H         91.11652       -6.13340       79.02938
H         92.72256       -5.51165       79.58284
H         91.43668       -5.75254       80.77018
H         93.56624       -3.01815       78.38430
H         93.29554       -4.62757       77.60418
H         93.07205       -3.12616       76.65394
N         89.04662       -3.25756       82.18598
C         88.61057       -3.58750       83.54750
C         87.24126       -2.99169       83.87898
O         86.74617       -3.24762       84.96834
C         89.70125       -3.21578       84.57190
C         90.12287       -1.77735       84.52538
O         89.32546       -0.88531       84.76334
O         91.40317       -1.47261       84.24036
H         89.20757       -2.26563       81.96212
H         88.46869       -4.68544       83.65381
H         90.59427       -3.84480       84.36146
H         89.35562       -3.46465       85.59929
N         86.52927       -2.27035       82.96641
C         85.14460       -1.87398       83.15780
C         84.90989       -0.87246       84.26444
O         84.10129       -1.14828       85.13904
H         86.93395       -2.07099       82.04231
H         84.52903       -2.78445       83.33072
H         84.77999       -1.40687       82.21743
N         85.51477        0.34827       84.23715
C         85.15646        1.44804       85.13881
C         84.56725        2.63577       84.36747
O         84.12028        3.57644       85.00919
C         86.35038        1.82977       86.05148
C         87.59113        2.29997       85.34359
O         88.62526        2.47044       85.96794
O         87.57476        2.51410       84.02452
H         86.21730        0.51293       83.50567
H         84.34678        1.11598       85.82426
H         86.62108        0.91618       86.62266
H         86.04116        2.61150       86.77849
N         84.50070        2.65302       83.00084
C         83.85879        3.69085       82.21285
C         84.82942        4.47911       81.35643
O         84.35990        5.27591       80.55883
H         84.89241        1.87941       82.46012
H         83.30825        4.41501       82.84886
H         83.11579        3.19323       81.55058
N         86.18442        4.37098       81.50397
C         87.13643        5.19595       80.76329
C         88.16029        4.34488       80.03848
O         88.19766        3.13852       80.22391
C         87.84265        6.15762       81.74398
C         86.84666        7.16492       82.34114
C         87.51676        8.13392       83.27903
N         88.07087        7.70882       84.43821
O         87.54187        9.32286       82.99768
H         86.56475        3.73379       82.21103
H         86.61483        5.79690       79.98783
H         88.62769        6.73431       81.20846
H         88.33522        5.56998       82.55042
H         86.03686        6.64250       82.89349
H         86.38776        7.73144       81.50084
H         88.04192        6.71411       84.70469
H         88.51577        8.38138       85.08068
N         89.01902        4.94143       79.15809
C         90.05532        4.22447       78.42896
C         91.39209        4.88269       78.73468
O         91.62320        6.00775       78.31580
C         89.73214        4.22994       76.90587
C         90.83815        3.56987       76.06665
C         88.40339        3.50345       76.63347
H         88.92438        5.95279       78.98332
H         90.09490        3.16302       78.75891
H         89.63058        5.28428       76.56436
H         91.79753        4.11070       76.18482
H         90.97861        2.50816       76.35746
H         90.57245        3.61056       74.98815
H         87.56740        3.98423       77.18256
H         88.15951        3.53986       75.55015
H         88.46893        2.43805       76.94595
N         92.31547        4.22708       79.49177
C         93.64799        4.74714       79.79161
C         94.48600        4.77396       78.51487
O         94.01424        4.31420       77.48892
C         94.28004        3.83028       80.87737
C         95.63945        4.23746       81.38202
N         95.82843        5.43091       81.98943
O         96.58032        3.46745       81.25909
H         92.04949        3.31845       79.88457
H         93.54638        5.77321       80.20646
H         94.34517        2.80013       80.47353
H         93.59994        3.80605       81.75731
H         95.04709        6.08984       82.11406
H         96.76228        5.69495       82.33732
N         95.74523        5.28933       78.49806
C         96.62229        5.22417       77.32986
C         96.89512        3.77788       76.94993
O         96.71260        3.41709       75.79626
C         97.96112        5.92959       77.64092
C         98.96991        5.74903       76.52824
C         98.71865        6.23473       75.23370
C        100.16868        5.06052       76.78190
C         99.65144        6.02961       74.21126
C        101.09788        4.85763       75.76016
C        100.84192        5.34064       74.46970
O        101.72926        5.14633       73.47355
H         96.10652        5.72823       79.35556
H         96.14707        5.74554       76.46892
H         98.37434        5.50327       78.58184
H         97.78093        7.01194       77.81648
H         97.80036        6.76401       75.01322
H        100.38185        4.67036       77.76964
H         99.44682        6.40272       73.21568
H        102.01358        4.32065       75.97312
H        102.56152        4.67186       73.61287
N         97.35939        2.90520       77.88315
C         97.68798        1.51170       77.60203
C         96.48736        0.78179       77.02549
O         96.62717        0.13382       75.99737
C         98.20058        0.80159       78.87690
C         99.50207        1.44166       79.40196
C        100.04758        0.69143       80.58137
O        101.16121        0.19382       80.52907
O         99.32227        0.58240       81.71074
H         97.46864        3.25743       78.84330
H         98.51256        1.46817       76.85500
H         98.41772       -0.25981       78.62172
H         97.41924        0.81812       79.66934
H         99.33151        2.49079       79.71852
H        100.26022        1.44580       78.58806
N         95.26241        0.88788       77.61142
C         94.06003        0.23652       77.08891
C         93.79018        0.65613       75.64697
O         93.45507       -0.19577       74.83625
C         92.82091        0.50739       77.98258
C         93.05674        0.05346       79.44073
C         91.83958        0.14503       80.31435
O         91.49271       -0.90668       81.07620
O         91.20906        1.18258       80.41074
H         95.18957        1.48581       78.44576
H         94.21912       -0.86388       77.10118
H         91.96058       -0.05761       77.55951
H         92.56685        1.58990       77.97192
H         93.83500        0.68060       79.90568
H         93.41658       -0.99415       79.46222
N         93.99273        1.94271       75.24752
C         93.83458        2.41473       73.88647
H         93.11610        3.26049       73.87045
H         94.81484        2.78169       73.51086
H         93.47114        1.62256       73.20064
H         94.32016        2.62403       75.93504
Ca        88.61798        1.15174       82.60122
O         90.81576        3.90493       83.10165
H         91.38290        3.88110       83.91300
H         89.90146        3.72996       83.43693
O         92.43894        1.30525       83.45167
H         92.99676        1.12437       84.24935
H         91.51817        1.07574       83.73468

Ca 1.0



