%chk=holoCaM-CaMKII.loop1.water2.frame28.chk
%nprocshared=20
%mem=10GB
%nosave
#b3lyp/svp scf=(tight,noincore,xqc) Test 
#IOP(5/87=12) Density=Current Pop=(MK,readradii) iop(6/33=2) iop(6/42=6)

holoCaM-CaMKII.loop1.water2.frame28 

   0  1 
C         38.85731       65.12546       21.79814
C         40.04584       64.53956       21.10006
O         40.14849       64.70280       19.89562
H         37.92709       64.68754       21.38369
H         38.89315       64.93704       22.89142
H         38.85080       66.22486       21.63426
N         41.01515       63.89283       21.80544
C         42.26436       63.43345       21.21194
C         42.08625       62.13167       20.42411
O         42.38866       61.07028       20.95495
C         43.31808       63.25405       22.32857
C         44.70376       63.21092       21.76699
O         45.65455       63.10060       22.52240
O         44.91567       63.45309       20.45796
H         40.91063       63.84186       22.83125
H         42.64378       64.25132       20.56186
H         43.09849       62.35813       22.95017
H         43.30170       64.13953       23.00005
N         41.56278       62.12248       19.16608
C         41.23044       60.87794       18.47719
C         42.42231       60.12618       17.89286
O         42.19326       59.03135       17.39605
C         40.13411       61.11322       17.41451
C         38.82431       61.71461       17.98035
C         38.27940       60.93362       19.19642
C         36.90238       61.41053       19.67768
N         35.83276       61.00452       18.76490
H         41.29812       63.01416       18.73006
H         40.79386       60.17749       19.21939
H         39.87608       60.13138       16.96082
H         40.51759       61.77313       16.60522
H         38.09009       61.71678       17.14935
H         38.98420       62.76966       18.28972
H         38.98105       61.09273       20.04301
H         38.22811       59.84493       18.97792
H         36.90369       62.51406       19.81902
H         36.70414       60.94098       20.66729
H         34.91682       61.32818       19.15075
H         35.96352       61.42054       17.81711
H         35.80977       59.96042       18.69301
N         43.70717       60.59196       17.94434
C         44.85160       59.78990       17.49146
C         45.74715       59.35328       18.65490
O         46.66814       58.58290       18.42163
C         45.61436       60.48172       16.34152
C         46.25031       61.80240       16.66964
O         46.15322       62.34432       17.89629
O         46.86963       62.39492       15.80083
H         43.88501       61.51654       18.35901
H         44.48908       58.83311       17.05623
H         44.90478       60.64070       15.49995
H         46.41300       59.79516       15.98318
N         45.48051       59.71987       19.94241
C         46.13172       59.14069       21.10662
C         47.60790       59.43248       21.23215
O         48.38563       58.49662       21.34935
H         44.70792       60.36762       20.13881
H         45.95929       58.04183       21.10607
H         45.64217       59.55032       22.01749
N         48.05670       60.71452       21.28584
C         49.43701       61.08668       21.60137
C         49.48262       62.00154       22.83249
O         50.53715       62.55217       23.11634
C         50.14849       61.65918       20.35012
C         49.36716       62.72757       19.66918
O         49.06114       63.85579       20.31176
O         48.90363       62.52679       18.55833
H         47.37464       61.47467       21.13660
H         50.04678       60.19748       21.87396
H         50.26212       60.82200       19.62660
H         51.16503       62.02608       20.60452
N         48.41185       62.11166       23.67975
C         48.44784       62.84292       24.93899
C         48.28986       64.34324       24.81229
O         48.27540       64.99071       25.85130
H         47.56400       61.55567       23.50334
H         49.37596       62.58688       25.49630
H         47.59094       62.50389       25.56133
N         48.15074       64.97688       23.61195
C         47.95519       66.42181       23.49189
C         46.69887       66.75590       22.69756
O         46.10283       65.88240       22.08674
C         49.20694       67.07934       22.86346
C         50.38918       67.11094       23.84366
O         49.56754       66.43162       21.67029
H         48.18975       64.42327       22.74486
H         47.79891       66.87611       24.49557
H         48.98892       68.14206       22.62388
H         50.06789       65.60486       21.90427
H         50.11910       67.71235       24.73769
H         50.67089       66.08771       24.16980
H         51.26600       67.58584       23.35426
N         46.19774       68.02157       22.73906
C         44.97655       68.46022       22.06571
C         45.28591       69.72428       21.27870
O         45.84513       70.65477       21.84629
C         43.84678       68.69130       23.11626
C         43.49085       67.33559       23.79105
C         42.59280       69.30340       22.45096
C         42.48383       67.44175       24.93666
H         46.67944       68.70909       23.34104
H         44.59462       67.68236       21.36763
H         44.21501       69.40408       23.88716
H         44.40694       66.88422       24.22470
H         43.09013       66.63337       23.02586
H         41.79710       69.50605       23.19430
H         42.82865       70.28277       21.98689
H         42.19073       68.62547       21.66765
H         41.50056       67.81740       24.59146
H         42.31867       66.43162       25.36896
H         42.88049       68.10672       25.73213
N         44.88599       69.85011       19.98113
C         45.12004       71.04613       19.17525
C         43.82226       71.80908       18.97519
O         42.77189       71.32752       19.37757
C         45.74002       70.66439       17.80217
C         47.06310       69.90328       17.94452
O         44.82908       69.92685       17.02151
H         44.33899       69.08593       19.56514
H         45.81633       71.73103       19.70763
H         45.96653       71.59453       17.23901
H         44.82145       68.98870       17.34293
H         46.90040       68.95803       18.50146
H         47.46132       69.65447       16.93697
H         47.81017       70.51880       18.48560
N         43.82584       73.03253       18.37284
C         42.60233       73.78989       18.10909
C         41.70575       73.05279       17.13068
O         40.49409       73.17293       17.24692
C         42.90234       75.21313       17.58578
C         43.52382       76.07616       18.70218
O         43.73341       75.13089       16.45017
H         44.73400       73.43590       18.09465
H         42.03631       73.90362       19.06238
H         41.94298       75.70074       17.30004
H         44.23907       75.97985       16.35942
H         42.82668       76.13424       19.56671
H         44.49108       75.65797       19.04765
H         43.68797       77.11249       18.33736
N         42.22620       72.25785       16.15168
C         41.39214       71.45593       15.26337
C         40.61246       70.44165       16.08581
O         39.39180       70.42274       16.00789
C         42.26821       70.75433       14.19927
C         41.43216       69.94518       13.18820
C         42.29497       69.21079       12.14433
C         43.10246       70.11674       11.19356
N         42.24072       70.94097       10.34363
H         43.25113       72.20407       16.04932
H         40.69006       72.12800       14.71940
H         43.00010       70.08030       14.69553
H         42.83183       71.54117       13.65544
H         40.69441       70.60434       12.68418
H         40.86228       69.16821       13.74138
H         41.63044       68.56764       11.52718
H         43.00183       68.54292       12.68301
H         43.71633       69.45892       10.53903
H         43.80627       70.76183       11.76047
H         41.58841       70.33354        9.79594
H         41.69716       71.62429       10.91637
H         42.83818       71.47686        9.67324
N         41.26702       69.57694       16.91528
C         40.58616       68.57088       17.72993
C         39.64984       69.18429       18.76750
O         38.86724       68.44045       19.34274
C         41.61349       67.67221       18.45955
C         42.47219       66.84952       17.48333
C         43.50107       66.02639       18.20673
O         44.46021       66.62469       18.93733
O         43.49424       64.81053       18.10723
H         42.29316       69.63799       16.95544
H         39.97312       67.93910       17.04902
H         41.08266       66.96243       19.12740
H         42.25529       68.31721       19.09510
H         43.00736       67.50763       16.77090
H         41.80299       66.18028       16.90020
N         39.68140       70.51172       19.07908
C         38.79555       71.13629       20.03962
H         38.05282       70.42618       20.45847
H         39.39504       71.55796       20.87341
H         38.24598       71.96275       19.54141
H         40.37457       71.12230       18.63718
Ca        46.92415       64.27268       19.98131
O         46.87611       65.81916       16.59282
H         46.81231       65.92118       15.61044
H         47.01262       64.84989       16.73615
O         48.51464       66.82261       19.13054
H         48.36828       67.17901       18.22115
H         49.47259       66.57476       19.13636

Ca 1.0



