%chk=holoCaM-CaMKII.loop2.water2.frame76.chk
%nprocshared=20
%mem=10GB
%nosave
#b3lyp/svp scf=(tight,noincore,xqc) Test 
#IOP(5/87=12) Density=Current Pop=(MK,readradii) iop(6/33=2) iop(6/42=6)

holoCaM-CaMKII.loop2.water2.frame76 

   -2  1 
C        -19.45754       77.96609       91.73323
C        -20.93154       78.13745       91.47947
O        -21.33968       78.14791       90.32932
H        -18.88669       78.79443       91.26724
H        -19.23030       77.94978       92.82140
H        -19.11795       76.99974       91.30224
N        -21.79503       78.24917       92.52407
C        -23.24908       78.29872       92.38878
C        -23.72673       79.54650       91.64676
O        -23.33416       80.64057       92.02787
C        -23.88016       78.27349       93.79944
C        -25.35849       78.01559       93.78828
O        -26.04118       78.01798       94.94764
O        -25.93905       77.74800       92.75066
H        -21.39441       78.23468       93.47537
H        -23.57251       77.37625       91.85820
H        -23.66651       79.23514       94.31455
H        -23.42924       77.45405       94.39779
N        -24.62297       79.45432       90.61540
C        -25.13755       80.60951       89.87863
C        -26.65414       80.80516       90.00350
O        -27.14095       81.77775       89.44204
C        -24.77017       80.44940       88.39934
H        -24.95683       78.52281       90.33673
H        -24.66369       81.54352       90.25097
H        -25.25178       79.53923       87.97896
H        -25.10673       81.33148       87.81281
H        -23.66978       80.35556       88.28624
N        -27.47101       79.95348       90.69577
C        -28.93321       80.09806       90.70355
C        -29.63013       79.52572       91.95042
O        -30.85314       79.55795       91.98083
C        -29.52576       79.52104       89.39164
C        -29.26982       78.05755       89.18975
O        -29.68837       77.49457       88.19148
O        -28.57317       77.36019       90.09384
H        -27.05703       79.11387       91.10837
H        -29.19352       81.17955       90.71038
H        -29.08907       80.06300       88.52645
H        -30.62448       79.68785       89.37847
N        -28.95141       79.04938       93.03736
C        -29.61321       78.58472       94.25220
C        -30.37016       77.27178       94.12289
O        -30.98358       76.87487       95.10376
H        -27.92929       79.09858       93.06211
H        -30.30300       79.38025       94.60790
H        -28.84690       78.42954       95.04285
N        -30.37061       76.52912       92.97886
C        -31.09414       75.26328       92.83760
C        -30.56497       74.09944       93.70371
O        -31.13464       73.02034       93.60900
C        -31.18540       74.84687       91.34737
C        -29.87787       74.79589       90.54284
N        -30.09432       74.00634       89.33665
O        -28.81184       74.27054       91.26643
H        -29.86935       76.89309       92.16141
H        -32.15054       75.42683       93.14768
H        -31.83176       75.57518       90.81017
H        -31.70285       73.86391       91.29355
H        -30.78022       74.49835       88.72232
H        -29.20117       73.93959       88.81357
N        -29.53540       74.22739       94.59291
C        -29.07202       73.14761       95.46580
C        -28.27832       72.03601       94.78108
O        -27.83124       71.13891       95.48052
H        -29.10211       75.14521       94.73161
H        -29.94091       72.71883       96.01294
H        -28.38960       73.58912       96.22313
N        -28.06011       72.02246       93.43803
C        -27.31562       70.99989       92.70532
C        -26.23062       71.62694       91.84096
O        -26.49692       72.60261       91.15781
C        -28.27025       70.21355       91.77691
C        -29.25264       69.36260       92.57902
O        -28.99541       71.07911       90.93852
H        -28.47856       72.76333       92.88544
H        -26.84795       70.25904       93.39190
H        -27.67314       69.49577       91.16376
H        -28.41225       71.30204       90.16739
H        -28.69770       68.64727       93.22420
H        -29.90084       69.99968       93.21565
H        -29.89197       68.77933       91.88326
N        -24.99974       71.05255       91.74767
C        -23.97864       71.51595       90.80601
C        -24.45977       71.27231       89.37337
O        -24.84633       70.15418       89.06057
C        -22.60880       70.80676       91.05786
C        -22.12035       71.08836       92.50769
C        -21.55878       71.29831       90.03515
C        -20.80896       70.39091       92.87354
H        -24.80757       70.22089       92.32546
H        -23.79518       72.59848       90.96888
H        -22.73889       69.70932       90.92569
H        -22.87546       70.72849       93.23492
H        -21.99726       72.18232       92.66053
H        -20.58887       70.77963       90.16036
H        -21.88077       71.07318       89.00133
H        -21.39918       72.39445       90.13104
H        -20.90365       69.29332       92.73517
H        -19.96134       70.77177       92.26987
H        -20.57167       70.59682       93.93854
N        -24.38289       72.26153       88.43446
C        -24.73610       72.08750       87.02520
C        -23.47819       71.98369       86.19308
O        -22.38975       72.06700       86.73571
C        -25.58060       73.27757       86.52099
C        -26.86887       73.39699       87.25956
O        -27.93268       73.34005       86.66370
O        -26.85413       73.58155       88.58636
H        -23.96659       73.15855       88.70821
H        -25.30149       71.14096       86.87612
H        -25.81384       73.15756       85.44194
H        -25.00757       74.22234       86.64328
N        -23.55043       71.75129       84.85755
C        -22.37486       71.58415       84.01620
C        -21.49869       72.83963       83.94490
O        -20.31942       72.70349       84.23528
C        -22.79324       71.05198       82.63067
C        -21.62485       70.73394       81.72435
C        -21.59140       71.25325       80.41942
C        -20.57361       69.89881       82.15393
C        -20.53120       70.94345       79.56238
C        -19.50759       69.60743       81.29949
C        -19.48793       70.12575       80.00350
H        -24.48363       71.63217       84.43139
H        -21.76587       70.77486       84.47425
H        -23.49294       71.75884       82.13758
H        -23.34795       70.10253       82.79835
H        -22.39392       71.88394       80.05792
H        -20.56543       69.47370       83.14816
H        -20.52011       71.33593       78.55429
H        -18.69885       68.97452       81.64208
H        -18.66614       69.89016       79.34027
N        -21.95389       74.08701       83.59394
C        -21.08414       75.25724       83.50784
C        -20.50655       75.63290       84.86308
O        -19.35510       76.04564       84.90994
C        -21.99044       76.33607       82.90256
C        -23.35618       75.95937       83.42279
C        -23.33083       74.43421       83.29739
H        -20.24077       75.10700       82.79648
H        -21.66531       77.38505       83.07554
H        -22.03087       76.16706       81.80191
H        -23.38703       76.23894       84.49786
H        -24.21549       76.45202       82.92099
H        -24.06152       74.03784       84.02584
H        -23.56944       74.09842       82.26632
N        -21.21528       75.45302       86.01221
C        -20.67755       75.73387       87.34024
C        -19.43573       74.88594       87.57665
O        -18.38549       75.43085       87.88345
C        -21.72274       75.42161       88.43603
C        -23.02911       76.24111       88.31146
C        -24.04350       75.85008       89.35695
O        -25.30250       76.31730       89.28106
O        -23.76163       75.05687       90.23777
H        -22.16030       75.05464       85.93906
H        -20.41466       76.81302       87.41848
H        -21.26822       75.61879       89.43155
H        -21.97876       74.34266       88.38300
H        -23.49759       76.04450       87.32828
H        -22.82600       77.33051       88.37634
N        -19.49538       73.53463       87.41481
C        -18.38009       72.63127       87.59353
H        -17.45828       73.15546       87.91606
H        -18.64816       71.87091       88.35748
H        -18.17886       72.10877       86.63361
H        -20.38036       73.11512       87.12357
Ca       -26.92006       75.40318       90.59255
O        -26.73460       75.05022       93.82009
H        -27.33524       75.72753       93.41894
H        -26.66980       75.30718       94.77439
O        -24.04828       74.84482       93.06904
H        -23.73305       75.06621       93.97995
H        -23.29495       74.35032       92.66247

Ca 1.0



