%chk=holoCaM.loop3.water2.frame56.chk
%nprocshared=20
%mem=10GB
%nosave
#b3lyp/svp scf=(tight,noincore,xqc) Test 
#IOP(5/87=12) Density=Current Pop=(MK,readradii) iop(6/33=2) iop(6/42=6)

holoCaM.loop3.water2.frame56 

   0  1 
C         89.86461       -8.64956       28.76338
C         89.64615       -8.42743       30.23007
O         89.92212       -9.32371       31.01434
H         90.93436       -8.86442       28.56961
H         89.24525       -9.50888       28.42848
H         89.56555       -7.75827       28.17097
N         89.10250       -7.25989       30.66605
C         88.74936       -6.99987       32.04902
C         87.24128       -7.01902       32.10794
O         86.59254       -5.98442       32.03322
C         89.35471       -5.67259       32.51374
C         88.93506       -5.39345       33.91933
O         89.28410       -6.21819       34.92260
O         88.22063       -4.43953       34.14342
H         88.84416       -6.54220       29.97045
H         89.12907       -7.79457       32.73149
H         89.00672       -4.85222       31.84811
H         90.46012       -5.70630       32.47085
N         86.62844       -8.22691       32.11064
C         85.19199       -8.41505       32.00095
C         84.49072       -7.90942       33.25321
O         83.59386       -7.08813       33.11786
C         84.89392       -9.88603       31.62006
C         85.57151      -10.19230       30.25482
C         85.31491      -11.59649       29.70924
C         86.07662      -11.77202       28.37978
N         85.83772      -13.08768       27.79234
H         87.23549       -9.06024       32.14413
H         84.81336       -7.82025       31.13769
H         83.79564      -10.02005       31.51454
H         85.26648      -10.58054       32.40438
H         86.67171      -10.07460       30.33710
H         85.20800       -9.45864       29.50119
H         84.22517      -11.73205       29.54138
H         85.67025      -12.35491       30.43988
H         87.16943      -11.64596       28.55767
H         85.75523      -10.98945       27.65578
H         86.38209      -13.16511       26.90221
H         86.15256      -13.83798       28.44866
H         84.82102      -13.20213       27.57714
N         84.88970       -8.28276       34.50852
C         84.28218       -7.72297       35.72772
C         84.42674       -6.19730       35.84918
O         83.78313       -5.62366       36.71671
C         84.81244       -8.40861       37.00671
C         86.25913       -8.11254       37.29186
O         87.18569       -8.41168       36.37031
O         86.59452       -7.63150       38.36145
H         85.63906       -8.98558       34.58627
H         83.19544       -7.95518       35.66764
H         84.68793       -9.50804       36.90038
H         84.20234       -8.08590       37.87942
N         85.20436       -5.47142       34.99364
C         85.19561       -4.01767       34.92959
C         85.95307       -3.29325       36.02536
O         85.93372       -2.07054       36.00002
H         85.74573       -5.95835       34.27559
H         84.14109       -3.66973       34.88872
H         85.67222       -3.70932       33.97346
N         86.66128       -3.93748       36.99708
C         87.39768       -3.22268       38.04615
C         88.71022       -2.55709       37.57740
O         89.45138       -2.08988       38.42967
C         87.63049       -4.14423       39.26947
C         88.53581       -5.33282       39.07064
N         88.79610       -6.14689       40.11895
O         89.03124       -5.57413       37.98236
H         86.63227       -4.96666       37.02802
H         86.73844       -2.42475       38.45614
H         86.64222       -4.52087       39.61482
H         88.05650       -3.52840       40.09135
H         88.38166       -5.95889       41.04404
H         89.41164       -6.96467       40.00976
N         89.04603       -2.42138       36.25979
C         90.26615       -1.78093       35.78075
C         91.53613       -2.61151       35.92525
O         92.58668       -2.09076       35.57820
H         88.36873       -2.68405       35.54803
H         90.38651       -0.80275       36.29757
H         90.15555       -1.56751       34.69542
N         91.54119       -3.87754       36.43837
C         92.76419       -4.63426       36.72295
C         92.71260       -6.06014       36.20432
O         91.74466       -6.75563       36.47067
C         92.95935       -4.65862       38.24928
C         93.26842       -3.26411       38.73290
C         92.37075       -2.56559       39.55295
C         94.46439       -2.64094       38.33378
C         92.65699       -1.25449       39.94924
C         94.75097       -1.33721       38.73459
C         93.84481       -0.63574       39.54002
O         94.10512        0.62995       39.92305
H         90.65177       -4.28697       36.74281
H         93.65664       -4.14755       36.27640
H         93.80785       -5.31920       38.53201
H         92.03680       -5.06334       38.72418
H         91.44411       -3.02726       39.86895
H         95.17536       -3.16422       37.70598
H         91.95179       -0.71662       40.56937
H         95.67483       -0.87374       38.41202
H         94.91287        1.09040       39.65300
N         93.78106       -6.58581       35.52796
C         93.86346       -7.97734       35.08593
C         95.03194       -8.66107       35.79650
O         96.17608       -8.30529       35.54851
C         94.02320       -8.02669       33.53588
C         92.79003       -7.37252       32.86053
C         94.23194       -9.47005       33.03380
C         92.92295       -7.21951       31.34386
H         94.59691       -5.98192       35.34298
H         92.93199       -8.51982       35.35282
H         94.92905       -7.43817       33.26537
H         92.65590       -6.34787       33.26689
H         91.87444       -7.95974       33.09409
H         95.13480       -9.92053       33.49228
H         93.35348      -10.10174       33.27462
H         94.40906       -9.49305       31.94038
H         93.81868       -6.61046       31.09889
H         92.98828       -8.20113       30.83519
H         92.02823       -6.69938       30.94433
N         94.80497       -9.65051       36.71205
C         95.87455      -10.37817       37.40317
C         96.52552      -11.41352       36.48821
O         96.10921      -11.54182       35.34807
C         95.30637      -11.06212       38.66502
O         94.30934      -11.98359       38.32470
H         93.82548       -9.86672       36.95370
H         96.64114       -9.65413       37.75772
H         94.87167      -10.28062       39.32675
H         96.12250      -11.57771       39.21771
H         94.04979      -12.43849       39.16767
N         97.54810      -12.20503       36.92432
C         98.13232      -13.28164       36.12207
C         97.11199      -14.37930       35.87221
O         96.88166      -14.73485       34.72665
C         99.34632      -13.89229       36.83238
H         97.91955      -12.04578       37.87435
H         98.49883      -12.87179       35.15340
H         99.06503      -14.32585       37.81549
H         99.78767      -14.69665       36.20335
H        100.12122      -13.11390       36.99276
N         96.45017      -14.94371       36.92485
C         95.44125      -15.99332       36.79546
C         94.35983      -15.58831       35.82012
O         94.04430      -16.35983       34.92360
C         94.81225      -16.27997       38.16707
H         96.65278      -14.57922       37.86790
H         95.91701      -16.93285       36.43644
H         95.59250      -16.61695       38.88214
H         94.32778      -15.36702       38.57742
H         94.04637      -17.08072       38.08280
N         93.78044      -14.36309       35.91472
C         92.74744      -13.88484       35.00955
C         93.20864      -13.96013       33.56121
O         92.54856      -14.61734       32.76930
C         92.33070      -12.45233       35.41073
C         91.19471      -11.93936       34.52342
C         90.58824      -10.65661       34.99872
O         90.95132      -10.06538       36.15493
O         89.66722      -10.17815       34.35639
H         94.10885      -13.73754       36.66248
H         91.85276      -14.53702       35.12837
H         93.19378      -11.75206       35.35364
H         91.98055      -12.48810       36.46659
H         90.37613      -12.69096       34.51366
H         91.56721      -11.80182       33.48669
N         94.34288      -13.32961       33.15533
C         94.85176      -13.37327       31.80024
H         95.85726      -13.84496       31.80282
H         94.19421      -13.95159       31.11854
H         94.94308      -12.33829       31.40994
H         94.88858      -12.80591       33.84283
Ca        89.40223       -8.53255       36.66959
O         91.60086       -8.16565       38.88396
H         92.32045       -7.77075       39.43707
H         91.10627       -8.76199       39.49950
O         88.32647       -9.92627       39.18421
H         88.85924      -10.36867       39.89113
H         88.23655      -10.60965       38.47312

Ca 1.0



