%chk=holoCaM-CaMKII.loop4.water2.frame96.chk
%nprocshared=20
%mem=10GB
%nosave
#b3lyp/svp scf=(tight,noincore,xqc) Test 
#IOP(5/87=12) Density=Current Pop=(MK,readradii) iop(6/33=2) iop(6/42=6)

holoCaM-CaMKII.loop4.water2.frame96 

   -3  1 
C         24.03818       40.21934       37.94901
C         25.27416       39.44944       37.59059
O         26.30865       40.06049       37.36466
H         23.17892       39.54043       38.13546
H         24.22471       40.80879       38.87086
H         23.77265       40.90545       37.11882
N         25.24336       38.09001       37.53701
C         26.41556       37.28156       37.23285
C         26.88508       37.56307       35.80784
O         26.12388       37.36288       34.87168
C         26.07042       35.79875       37.45432
C         27.25202       34.88495       37.41603
O         27.08029       33.69978       37.63284
O         28.49630       35.35062       37.20016
H         24.35476       37.61335       37.75757
H         27.20787       37.54680       37.97034
H         25.31346       35.46811       36.71050
H         25.63352       35.69174       38.47209
N         28.12125       38.09029       35.59041
C         28.58708       38.57504       34.29020
C         29.23010       37.44363       33.48813
O         29.05146       37.38282       32.28016
C         29.60791       39.75670       34.45596
C         29.11292       40.82834       35.47348
C         29.86654       40.41290       33.07942
C         30.11980       41.95533       35.72457
H         28.71110       38.25228       36.41425
H         27.72009       39.00199       33.73637
H         30.56352       39.34412       34.85046
H         28.95747       40.36127       36.46419
H         28.14454       41.26266       35.14565
H         28.92677       40.86222       32.68751
H         30.63537       41.20742       33.14006
H         30.23980       39.67781       32.33978
H         30.26295       42.58559       34.82542
H         29.74233       42.61248       36.53640
H         31.09941       41.53774       36.03871
N         30.01741       36.52729       34.11947
C         30.78719       35.46787       33.45800
C         30.19188       34.06911       33.68064
O         30.74130       33.11073       33.15510
C         32.27432       35.56142       33.90537
C         32.47730       35.35415       35.38783
O         31.41385       35.07023       36.15572
O         33.59008       35.43408       35.88151
H         30.06586       36.59918       35.14037
H         30.76670       35.62194       32.35684
H         32.65663       36.57023       33.63767
H         32.87853       34.80698       33.35636
N         29.02571       33.88827       34.36504
C         28.29499       32.63055       34.42107
C         28.92703       31.51010       35.22309
O         29.08802       30.42952       34.67305
H         28.54939       34.70498       34.76738
H         28.09116       32.28706       33.38183
H         27.30813       32.82607       34.89304
N         29.20595       31.65608       36.55300
C         29.53588       30.52982       37.43281
C         28.52058       30.40902       38.56812
O         28.86174       29.90768       39.63097
C         30.99902       30.59713       37.91903
C         31.38080       31.78956       38.74874
O         32.56068       31.97959       38.99443
O         30.48698       32.70515       39.15018
H         29.11308       32.58865       36.97311
H         29.47032       29.57453       36.86759
H         31.63273       30.61444       37.00556
H         31.25506       29.68132       38.49306
N         27.22377       30.79541       38.38338
C         26.17822       30.65327       39.38611
C         26.31814       31.53660       40.61287
O         25.44093       31.44163       41.46166
H         26.93496       31.15884       37.46396
H         26.12030       29.58853       39.69972
H         25.20606       30.92147       38.91807
N         27.36004       32.39835       40.80805
C         27.49248       33.20996       42.01814
C         27.93387       34.63199       41.69892
O         28.28765       34.91177       40.55979
C         28.40527       32.47464       43.02532
C         29.83536       32.23089       42.50892
C         30.63754       31.29604       43.38408
N         31.90555       30.97596       43.03651
O         30.14687       30.80289       44.38977
H         28.11462       32.44202       40.11232
H         26.49681       33.30122       42.50608
H         27.92876       31.48708       43.21570
H         28.44783       33.02370       43.99113
H         30.35780       33.20413       42.42914
H         29.79799       31.75634       41.50959
H         32.33492       31.37502       42.18871
H         32.45721       30.32097       43.61068
N         27.88170       35.60252       42.65795
C         28.24200       36.99801       42.41493
C         29.32189       37.40859       43.40244
O         29.07479       37.39562       44.60155
C         26.98507       37.91186       42.52779
C         27.33085       39.39437       42.29546
C         25.91243       37.49544       41.50604
H         27.53247       35.35038       43.59656
H         28.63509       37.12090       41.38227
H         26.55216       37.81336       43.54807
H         26.41986       40.02303       42.39457
H         28.06273       39.75514       43.04555
H         27.74910       39.54545       41.27849
H         25.58973       36.44734       41.67420
H         25.01513       38.14405       41.60255
H         26.30284       37.58723       40.46920
N         30.54840       37.79893       42.95630
C         31.61762       38.27304       43.83028
C         31.43812       39.76302       44.08614
O         30.59603       40.37928       43.44772
C         32.97308       37.93204       43.15523
C         34.21623       38.34859       43.89887
N         34.47332       37.89298       45.14533
O         35.02024       39.08869       43.35232
H         30.71506       37.81321       41.94130
H         31.55538       37.73885       44.80383
H         32.99482       38.39897       42.14399
H         33.02320       36.83080       43.02352
H         33.81789       37.25857       45.62213
H         35.33312       38.18235       45.63530
N         32.17551       40.41091       45.03504
C         32.04624       41.84563       45.28169
C         32.47108       42.64456       44.05983
O         31.99259       43.75505       43.87358
C         32.89955       42.26992       46.49271
C         32.72844       43.73758       46.80238
C         31.47531       44.23884       47.19396
C         33.81480       44.61959       46.68369
C         31.31093       45.60090       47.45649
C         33.64740       45.98230       46.94464
C         32.39326       46.47757       47.33105
O         32.21651       47.79012       47.58166
H         32.83445       39.86707       45.60920
H         30.97521       42.05143       45.50247
H         33.96500       42.04007       46.26598
H         32.60851       41.67903       47.38776
H         30.62453       43.57638       47.29275
H         34.78817       44.25608       46.37812
H         30.33944       45.97480       47.75407
H         34.49184       46.65182       46.84202
H         32.93800       48.43009       47.50185
N         33.38783       42.13582       43.19365
C         33.78698       42.78789       41.95769
C         32.57192       42.89630       41.05239
O         32.22899       43.99198       40.63118
C         34.92306       41.96230       41.30823
C         35.55221       42.63072       40.08185
C         36.70016       41.80159       39.57456
O         37.94852       42.30764       39.56903
O         36.50997       40.66340       39.17532
H         33.81301       41.22819       43.41809
H         34.19415       43.79769       42.19090
H         34.55327       40.94756       41.04064
H         35.72923       41.84330       42.06725
H         35.93335       43.63420       40.37213
H         34.80156       42.75323       39.27304
N         31.84912       41.77849       40.75092
C         30.65157       41.78746       39.91132
C         29.48022       42.53130       40.55390
O         28.48536       42.74011       39.87271
C         30.21266       40.33887       39.59074
C         31.30258       39.56954       38.82414
C         30.88990       38.15935       38.53436
O         30.87514       37.75143       37.38677
O         30.58088       37.32083       39.53834
H         32.17873       40.88149       41.13659
H         30.90529       42.29552       38.95457
H         29.28806       40.35451       38.97198
H         29.98655       39.81320       40.54454
H         32.23858       39.52055       39.41416
H         31.52078       40.09583       37.87157
N         29.50365       42.94239       41.85279
C         28.40630       43.65680       42.46816
H         27.47965       43.04650       42.42728
H         28.64433       43.86732       43.53394
H         28.24369       44.62372       41.94688
H         30.31301       42.73281       42.44154
Ca        31.06837       34.66539       38.31440
O         33.65782       36.27806       39.02588
H         33.68133       35.38304       38.60370
H         34.60861       36.54289       39.09464
O         31.98110       34.70619       41.24372
H         32.89236       34.34103       41.36983
H         32.10761       35.68453       41.17749

Ca 1.0



