%chk=holoCaM-CaMKII.loop1.water2.frame330.chk
%nprocshared=20
%mem=10GB
%nosave
#b3lyp/svp scf=(tight,noincore,xqc) Test 
#IOP(5/87=12) Density=Current Pop=(MK,readradii) iop(6/33=2) iop(6/42=6)

holoCaM-CaMKII.loop1.water2.frame330 

   0  1 
C         29.68164       63.27443       56.24338
C         28.86007       64.03856       55.25242
O         27.97919       64.77687       55.66845
H         30.21361       63.98828       56.90674
H         29.01472       62.63186       56.85506
H         30.43135       62.63174       55.73670
N         29.09885       63.92481       53.91536
C         28.33424       64.66832       52.92459
C         26.88959       64.19649       52.95770
O         26.62446       63.05767       52.59497
C         28.95350       64.45795       51.53337
C         28.34131       65.29745       50.45914
O         27.39987       66.22345       50.72723
O         28.72649       65.14427       49.31693
H         29.86730       63.31178       53.60110
H         28.41185       65.74930       53.18276
H         28.85987       63.38544       51.25323
H         30.03541       64.71164       51.56827
N         25.91810       64.99545       53.47898
C         24.57358       64.50556       53.75644
C         23.66569       64.55644       52.53934
O         22.57461       64.00730       52.59541
C         23.97128       65.33536       54.92027
C         22.81399       64.66350       55.68648
C         23.16696       63.26897       56.25567
C         24.47753       63.24642       57.07225
N         24.78830       61.89607       57.53354
H         26.20694       65.89908       53.86883
H         24.69750       63.45630       54.08578
H         23.66837       66.34145       54.55258
H         24.76548       65.52687       55.67099
H         21.91632       64.56972       55.03974
H         22.54665       65.33643       56.53075
H         23.25254       62.54483       55.42007
H         22.32429       62.92438       56.89285
H         24.39368       63.93491       57.94154
H         25.33109       63.57946       56.44469
H         24.03377       61.54579       58.16522
H         24.89329       61.25695       56.71138
H         25.69516       61.91646       58.05456
N         24.01559       65.28104       51.43885
C         23.13267       65.50252       50.30046
C         23.82011       65.22890       48.95789
O         23.16626       65.36982       47.93354
C         22.54087       66.92599       50.39854
C         23.57150       68.01429       50.37242
O         24.50993       68.12208       51.33596
O         23.55933       68.82682       49.46210
H         24.90698       65.78996       51.45143
H         22.25978       64.81579       50.35151
H         21.96797       67.01741       51.34630
H         21.82755       67.07381       49.55785
N         25.10912       64.78595       48.87881
C         25.75349       64.39052       47.63866
C         25.97189       65.50976       46.64117
O         25.51461       65.37354       45.51559
H         25.65215       64.62946       49.73658
H         25.16174       63.57282       47.17088
H         26.75459       63.96892       47.87651
N         26.74776       66.59213       46.94742
C         27.20481       67.55812       45.93841
C         28.72139       67.48320       45.72550
O         29.19573       68.09904       44.78045
C         26.75437       69.00627       46.25471
C         27.07097       69.43582       47.65529
O         26.08756       69.88885       48.44119
O         28.19079       69.32696       48.10942
H         27.09173       66.68496       47.91418
H         26.77348       67.30038       44.94745
H         25.65340       69.08362       46.12459
H         27.22866       69.70533       45.53316
N         29.54414       66.75750       46.53769
C         30.97379       66.59375       46.32756
C         31.81156       67.30023       47.37522
O         33.02172       67.14001       47.34270
H         29.15868       66.28768       47.35679
H         31.28976       66.98261       45.33695
H         31.19579       65.50426       46.34720
N         31.25242       68.14690       48.28905
C         32.02085       68.92211       49.25555
C         31.51464       68.68937       50.66898
O         30.37692       68.28985       50.86483
C         31.95291       70.43460       48.91538
C         32.68771       70.77096       47.60726
O         30.62090       70.88576       48.87201
H         30.24284       68.29064       48.27570
H         33.08942       68.61691       49.23084
H         32.47368       71.00924       49.71199
H         30.25510       70.69167       47.96934
H         32.61850       71.86277       47.41137
H         33.75975       70.49634       47.69307
H         32.24379       70.22833       46.74579
N         32.35490       68.94001       51.71164
C         31.99992       68.80640       53.11942
C         32.22552       70.16019       53.76895
O         33.29835       70.72433       53.61073
C         32.85896       67.69225       53.78555
C         32.57543       66.33058       53.09327
C         32.55179       67.60579       55.29771
C         33.47630       65.19111       53.57216
H         33.31775       69.23926       51.49508
H         30.93602       68.51034       53.24368
H         33.93399       67.94836       53.65649
H         32.75047       66.42830       52.00110
H         31.51110       66.04344       53.24607
H         32.76401       68.57079       55.80144
H         31.48493       67.34448       55.46679
H         33.18873       66.85176       55.79987
H         33.32226       64.96519       54.64569
H         33.23587       64.27014       52.99989
H         34.54205       65.44899       53.39547
N         31.25848       70.72313       54.54631
C         31.39707       72.03358       55.16911
C         31.67148       71.87843       56.65197
O         31.68554       70.76621       57.15670
C         30.11519       72.87805       54.92477
C         29.83473       73.08377       53.42671
O         29.00825       72.30531       55.58597
H         30.40893       70.18456       54.74554
H         32.26901       72.57352       54.73989
H         30.25520       73.89201       55.35440
H         28.46872       71.77764       54.94208
H         28.91525       73.69495       53.29847
H         30.68378       73.60670       52.94143
H         29.67899       72.10663       52.92508
N         31.91024       72.98218       57.41383
C         32.11281       72.92840       58.85953
C         30.89536       72.32573       59.53199
O         31.05593       71.48209       60.40316
C         32.40351       74.33390       59.44135
C         33.75266       74.87440       58.94566
O         31.36927       75.22397       59.10654
H         31.91806       73.89963       56.94550
H         32.99488       72.29112       59.09731
H         32.46687       74.23269       60.55045
H         31.49350       76.03441       59.66623
H         34.56979       74.17845       59.23392
H         33.76160       75.00013       57.84361
H         33.95947       75.85958       59.41430
N         29.64148       72.68263       59.13795
C         28.42706       72.12149       59.71465
C         28.40471       70.60551       59.56503
O         28.24719       69.90941       60.55787
C         27.18887       72.72909       59.01353
C         25.88148       72.40610       59.75136
C         24.66948       72.90493       58.94864
C         23.33773       72.73779       59.69918
N         23.22267       73.66683       60.82665
H         29.54962       73.37719       58.37981
H         28.39221       72.40197       60.79156
H         27.14439       72.37109       57.96119
H         27.28347       73.83743       58.98956
H         25.93511       72.89667       60.74499
H         25.77071       71.31035       59.90185
H         24.62316       72.30718       58.01126
H         24.78909       73.97421       58.66950
H         23.21927       71.68794       60.04822
H         22.51161       72.95566       58.98679
H         22.28356       73.54990       61.27048
H         23.95230       73.48152       61.54934
H         23.30655       74.65234       60.48452
N         28.54349       70.03462       58.33286
C         28.43267       68.59626       58.08900
C         29.51041       67.78934       58.80053
O         29.33561       66.58536       58.93383
C         28.48360       68.29580       56.57001
C         27.30139       68.93731       55.81598
C         27.39725       68.75998       54.32593
O         28.44491       69.25369       53.64351
O         26.49016       68.22659       53.71346
H         28.70084       70.66309       57.53435
H         27.44670       68.26410       58.48479
H         28.45492       67.19994       56.39725
H         29.44844       68.67741       56.17490
H         27.26050       70.02586       56.00379
H         26.35396       68.49061       56.18920
N         30.65569       68.36111       59.26457
C         31.66794       67.60195       59.96587
H         32.52912       68.25856       60.21421
H         31.24631       67.19881       60.91121
H         32.02991       66.76452       59.33232
H         30.83201       69.35941       59.10589
Ca        26.16994       69.41995       50.61766
O         25.30100       71.47350       52.54030
H         25.35821       71.95136       51.67457
H         24.65303       70.74255       52.37690
O         28.19370       71.64970       50.78123
H         28.93212       70.99488       50.86210
H         28.41343       72.17902       49.97418

Ca 1.0



