%chk=holoCaM.loop1.water2.frame228.chk
%nprocshared=20
%mem=10GB
%nosave
#b3lyp/svp scf=(tight,noincore,xqc) Test 
#IOP(5/87=12) Density=Current Pop=(MK,readradii) iop(6/33=2) iop(6/42=6)

holoCaM.loop1.water2.frame228 

   0  1 
C         47.73358       74.62537       51.69159
C         47.22175       75.73562       52.56021
O         47.94171       76.20941       53.42450
H         48.77174       74.34793       51.96963
H         47.08142       73.73417       51.81707
H         47.71248       74.94016       50.62706
N         45.95746       76.19600       52.37813
C         45.33913       77.23102       53.20079
C         45.22145       76.74388       54.64467
O         44.64763       75.68373       54.85317
C         43.94166       77.53079       52.62272
C         43.20833       78.63515       53.31312
O         42.06476       78.87530       52.97955
O         43.78195       79.36606       54.28231
H         45.40604       75.77434       51.61288
H         45.94702       78.16182       53.13821
H         43.32381       76.60877       52.68234
H         44.03697       77.81859       51.55169
N         45.73235       77.46816       55.68774
C         45.70130       77.01849       57.07877
C         44.85798       77.91729       57.99218
O         44.67773       77.53805       59.14118
C         47.13992       76.97950       57.65338
C         48.17558       76.17119       56.85447
C         47.81747       74.68782       56.71258
C         48.96233       73.91023       56.04571
N         48.61246       72.49959       55.88584
H         46.17490       78.36861       55.49075
H         45.25714       76.00177       57.13186
H         47.10684       76.57764       58.68967
H         47.52469       78.02316       57.70706
H         49.14358       76.25589       57.39663
H         48.31614       76.62537       55.85295
H         46.89754       74.58602       56.09960
H         47.63237       74.25520       57.71946
H         49.87663       73.99060       56.67624
H         49.18935       74.34534       55.04746
H         48.39339       72.07383       56.81579
H         47.78649       72.40722       55.25092
H         49.42266       71.99090       55.46365
N         44.35482       79.12487       57.59200
C         43.60805       80.03243       58.47527
C         42.22212       80.39120       57.92921
O         41.54071       81.19272       58.55333
C         44.46663       81.28481       58.77910
C         44.80338       82.13357       57.58627
O         44.29306       81.84625       56.37787
O         45.62399       83.02993       57.69807
H         44.55617       79.44730       56.64055
H         43.43919       79.55368       59.46425
H         45.42334       80.91911       59.21711
H         43.97164       81.92210       59.54246
N         41.71032       79.79246       56.81462
C         40.35803       80.01130       56.32133
C         40.14378       81.36185       55.67551
O         39.23114       82.07325       56.07026
H         42.26016       79.06959       56.33237
H         39.62686       79.83685       57.14140
H         40.15396       79.26018       55.52885
N         40.92895       81.75355       54.63388
C         40.71793       82.97574       53.85623
C         40.71690       82.71047       52.34246
O         40.67154       83.66586       51.57974
C         41.75209       84.04198       54.27518
C         43.20197       83.69158       54.09705
O         44.13416       84.57036       54.50870
O         43.55216       82.62949       53.61218
H         41.72754       81.15189       54.38897
H         39.73171       83.42956       54.10023
H         41.59379       84.24975       55.35558
H         41.54981       84.98304       53.71890
N         40.72765       81.44211       51.83405
C         40.72377       81.11646       50.41407
C         42.00496       81.44850       49.66548
O         42.03366       81.18048       48.47220
H         40.65647       80.65052       52.47794
H         39.86384       81.62406       49.92527
H         40.57195       80.01973       50.30507
N         43.08620       82.03952       50.25717
C         44.28515       82.43672       49.51793
C         45.56996       81.88976       50.14202
O         45.53905       81.28462       51.20510
C         44.33176       83.98383       49.40176
C         43.20168       84.53080       48.51905
O         44.30283       84.59686       50.66578
H         43.04452       82.27528       51.25315
H         44.25340       82.02689       48.48406
H         45.27565       84.28501       48.90018
H         43.37937       84.54194       51.02530
H         43.27263       84.09819       47.49867
H         42.20625       84.28736       48.94595
H         43.29401       85.63486       48.44104
N         46.74694       82.04939       49.46546
C         48.05941       81.55891       49.88382
C         49.04541       82.73451       49.94520
O         49.10946       83.53214       49.02059
C         48.50206       80.41712       48.90658
C         47.62938       79.15804       49.20134
C         49.99801       80.07403       49.03705
C         47.91965       77.93743       48.32597
H         46.70989       82.51725       48.54664
H         48.02101       81.10521       50.89909
H         48.34974       80.75826       47.85883
H         46.55752       79.41467       49.06846
H         47.77738       78.84757       50.26133
H         50.22258       79.67653       50.03873
H         50.30110       79.31707       48.28601
H         50.62904       80.96383       48.83686
H         47.76294       78.18045       47.25559
H         48.95151       77.56072       48.48086
H         47.23044       77.11386       48.61312
N         49.89553       82.83868       51.00859
C         50.90395       83.87334       51.23038
C         52.28956       83.26871       51.04944
O         52.38945       82.12076       50.65423
C         50.78973       84.41362       52.69074
C         49.41947       85.03181       52.98098
O         51.11825       83.38441       53.60563
H         49.87741       82.08773       51.69701
H         50.78422       84.71185       50.50998
H         51.51654       85.23668       52.84275
H         50.40379       83.27436       54.28459
H         49.40658       85.45394       54.00952
H         49.19390       85.84632       52.26157
H         48.65404       84.24135       52.92188
N         53.41132       83.97184       51.36415
C         54.75283       83.39030       51.36091
C         54.83710       82.22137       52.34863
O         55.22602       81.13385       51.94689
C         55.78656       84.48747       51.71253
C         57.22159       83.95503       51.72919
O         55.69531       85.51331       50.75500
H         53.30668       84.95442       51.65671
H         54.98946       83.02244       50.33630
H         55.54465       84.88624       52.72720
H         55.88324       86.36982       51.22006
H         57.92115       84.78240       51.97181
H         57.34037       83.16814       52.50330
H         57.49032       83.53514       50.73684
N         54.47743       82.38430       53.65699
C         54.55047       81.33618       54.68959
C         53.67564       80.10662       54.43364
O         53.74206       79.18143       55.23209
C         54.14414       81.93968       56.05245
C         55.23016       82.86420       56.61661
C         54.70709       83.59905       57.85922
C         55.80704       84.34243       58.63215
N         56.69848       83.41317       59.33309
H         54.14956       83.32175       53.93600
H         55.59687       80.96338       54.75358
H         54.00003       81.13998       56.81336
H         53.17201       82.46880       55.93147
H         55.55587       83.62272       55.87218
H         56.10062       82.21984       56.85943
H         54.20676       82.89585       58.55954
H         53.94748       84.33348       57.51019
H         55.31246       84.98471       59.39354
H         56.38853       85.00289       57.95123
H         56.14093       82.79858       59.97131
H         57.23817       82.82325       58.66239
H         57.37604       83.95901       59.91189
N         52.86218       79.99918       53.35381
C         52.03713       78.83512       53.05646
C         52.60062       78.14038       51.83148
O         52.87681       76.95086       51.90464
C         50.58808       79.30618       52.86483
C         50.01008       79.80130       54.19474
C         48.68595       80.47334       54.03246
O         48.59423       81.57003       53.51582
O         47.59566       79.91758       54.55001
H         52.81153       80.77759       52.69163
H         52.04715       78.08765       53.88253
H         49.94482       78.48124       52.48496
H         50.59207       80.11961       52.12544
H         50.68325       80.53198       54.69102
H         49.89968       78.92030       54.86494
N         52.86352       78.82851       50.68918
C         53.48803       78.22081       49.53735
H         54.47034       77.78810       49.82624
H         52.83240       77.42900       49.12245
H         53.66494       78.99276       48.75738
H         52.65545       79.82735       50.64210
Ca        45.83313       81.23720       54.89352
O         46.44924       84.39685       52.11907
H         45.91732       83.94456       52.81863
H         46.42796       85.35579       52.36520
O         47.44413       83.81452       55.38223
H         47.05382       84.70905       55.21603
H         47.95176       83.91637       56.22589

Ca 1.0



