%chk=holoCaM-CaMKII.loop1.water2.frame45.chk
%nprocshared=20
%mem=10GB
%nosave
#b3lyp/svp scf=(tight,noincore,xqc) Test 
#IOP(5/87=12) Density=Current Pop=(MK,readradii) iop(6/33=2) iop(6/42=6)

holoCaM-CaMKII.loop1.water2.frame45 

   0  1 
C         -4.85437       54.64451        1.79804
C         -6.25218       54.78033        1.26551
O         -7.16709       54.31265        1.91742
H         -4.11097       55.12177        1.12529
H         -4.78845       55.12946        2.79470
H         -4.59585       53.57088        1.89800
N         -6.48403       55.44447        0.09948
C         -7.79756       55.67015       -0.51215
C         -8.35388       54.37022       -1.12381
O         -8.32789       54.22777       -2.33859
C         -7.61076       56.77522       -1.58904
C         -8.87889       57.29663       -2.20050
O         -8.80904       58.15516       -3.06381
O        -10.08562       56.86453       -1.79361
H         -5.66125       55.86532       -0.36116
H         -8.49854       56.09018        0.24265
H         -6.94535       56.39612       -2.39571
H         -7.11170       57.65096       -1.11763
N         -8.83367       53.35582       -0.34424
C         -9.21867       52.04763       -0.87937
C        -10.55854       52.03917       -1.61963
O        -10.86882       51.01487       -2.21166
C         -9.18767       50.98179        0.24322
C         -7.74910       50.78576        0.76852
C         -7.67036       49.71434        1.86458
C         -6.22088       49.37903        2.27087
N         -5.50803       50.52291        2.84287
H         -8.86307       53.48233        0.67191
H         -8.44671       51.73941       -1.62003
H         -9.52847       50.00561       -0.16600
H         -9.87517       51.27499        1.06759
H         -7.35849       51.74283        1.16727
H         -7.10837       50.46866       -0.08353
H         -8.12666       48.77656        1.47980
H         -8.24809       50.04452        2.75521
H         -5.66254       49.00020        1.38556
H         -6.25212       48.56237        3.02555
H         -6.02717       50.89888        3.66877
H         -4.56014       50.20847        3.15379
H         -5.37729       51.27142        2.12710
N        -11.38710       53.12275       -1.66441
C        -12.61416       53.17978       -2.47266
C        -12.51062       54.24543       -3.56698
O        -13.45891       54.38994       -4.32639
C        -13.86725       53.36497       -1.58164
C        -13.67710       54.44188       -0.56446
O        -13.68990       54.15038        0.62177
O        -13.31016       55.68018       -0.92869
H        -11.12555       53.96605       -1.13365
H        -12.77488       52.22712       -3.02309
H        -14.04290       52.41310       -1.03112
H        -14.76804       53.55758       -2.20293
N        -11.36662       54.96402       -3.77097
C        -11.15721       55.84452       -4.90925
C        -11.97660       57.11755       -4.92725
O        -11.85878       57.83745       -5.90920
H        -10.55499       54.80745       -3.16704
H        -11.36019       55.26650       -5.83662
H        -10.08821       56.14969       -4.93325
N        -12.81603       57.48517       -3.91570
C        -13.63813       58.69395       -3.99435
C        -12.83348       59.99218       -4.08139
O        -13.42713       61.01098       -4.40643
C        -14.67342       58.74478       -2.84809
C        -14.10432       58.77627       -1.45279
O        -14.94988       58.78607       -0.40665
O        -12.90134       58.76560       -1.24950
H        -12.91183       56.87027       -3.09869
H        -14.22047       58.61809       -4.93994
H        -15.31465       57.84046       -2.92375
H        -15.32352       59.63594       -2.98322
N        -11.49624       60.04020       -3.81701
C        -10.67642       61.22891       -4.00745
C        -10.12328       61.78810       -2.71687
O         -9.30281       62.69217       -2.79560
H        -11.02019       59.19568       -3.47790
H        -11.23583       62.04773       -4.50930
H         -9.83208       60.94815       -4.67308
N        -10.55972       61.36136       -1.49684
C        -10.09115       61.92620       -0.23622
C         -9.56656       60.84544        0.69637
O         -9.70356       59.66151        0.41629
C        -11.24701       62.71421        0.44293
C        -11.59208       63.97606       -0.35136
O        -12.40791       61.92963        0.54851
H        -11.29569       60.64599       -1.44899
H         -9.24387       62.62608       -0.41009
H        -10.94102       63.05912        1.45579
H        -12.16140       61.10174        1.03169
H        -11.93045       63.72276       -1.37795
H        -12.40705       64.53125        0.16093
H        -10.70514       64.64232       -0.41465
N         -8.92288       61.21963        1.83768
C         -8.39671       60.30183        2.84161
C         -8.97772       60.70296        4.18865
O         -8.92001       61.87762        4.52922
C         -6.84193       60.35799        2.87021
C         -6.27042       60.01442        1.46778
C         -6.29863       59.37760        3.93527
C         -4.74784       60.12931        1.37541
H         -8.77236       62.22854        1.99719
H         -8.67157       59.25092        2.60458
H         -6.52597       61.39052        3.13907
H         -6.68521       60.72526        0.72197
H         -6.57559       58.98614        1.17184
H         -5.19643       59.43720        4.02035
H         -6.69541       59.62070        4.94125
H         -6.58436       58.33246        3.68552
H         -4.42305       61.15379        1.65543
H         -4.24135       59.38846        2.02551
H         -4.42759       59.92782        0.33160
N         -9.50034       59.77157        5.03288
C        -10.06766       60.10298        6.33630
C         -9.15498       59.62595        7.44691
O         -8.14666       58.99147        7.18019
C        -11.47933       59.46690        6.49246
C        -12.47204       59.96623        5.43946
O        -11.41048       58.06029        6.48769
H         -9.44291       58.78148        4.76609
H        -10.15937       61.20489        6.45194
H        -11.90505       59.76329        7.47399
H        -11.32361       57.74905        5.55037
H        -13.46409       59.49631        5.61537
H        -12.58254       61.06812        5.50700
H        -12.12340       59.69653        4.42146
N         -9.47596       59.88761        8.74208
C         -8.74604       59.33622        9.88076
C         -8.76679       57.82008        9.81205
O         -7.75292       57.18621       10.06742
C         -9.39325       59.78399       11.21783
C         -9.26289       61.29488       11.43880
O        -10.75008       59.41428       11.24708
H        -10.31941       60.45170        8.92244
H         -7.68919       59.68680        9.87729
H         -8.84485       59.27157       12.04389
H        -11.02611       59.38798       12.19992
H         -9.70847       61.56738       12.41889
H         -8.19146       61.58656       11.44863
H         -9.78581       61.86955       10.64717
N         -9.91345       57.18618        9.44529
C        -10.08333       55.74065        9.40650
C         -9.04843       55.10427        8.49825
O         -8.32563       54.21737        8.92959
C        -11.51423       55.34608        8.92490
C        -12.68768       56.11674        9.57665
C        -12.63322       56.16899       11.10821
C        -13.74464       57.07658       11.65463
N        -13.65722       57.19298       13.10904
H        -10.70512       57.78303        9.18551
H         -9.95582       55.34747       10.43907
H        -11.64048       54.25640        9.10551
H        -11.61412       55.51554        7.83005
H        -13.64642       55.66381        9.24233
H        -12.70040       57.15676        9.19136
H        -11.66584       56.60716       11.43034
H        -12.72125       55.14331       11.52530
H        -14.74037       56.67167       11.36938
H        -13.63999       58.09292       11.20958
H        -12.72987       57.59400       13.38158
H        -14.41083       57.83442       13.44639
H        -13.78099       56.25442       13.55219
N         -8.92815       55.53544        7.21446
C         -7.99870       54.97176        6.24093
C         -6.56353       55.14910        6.69793
O         -5.88658       54.15062        6.90064
C         -8.23835       55.62656        4.86128
C         -9.63647       55.24647        4.34162
C        -10.04394       55.97536        3.10268
O        -10.15984       57.18761        3.09993
O        -10.44227       55.27738        2.03541
H         -9.54371       56.30712        6.92090
H         -8.19834       53.88039        6.13823
H         -7.47426       55.28359        4.13764
H         -8.14927       56.72977        4.95803
H        -10.41500       55.48231        5.09255
H         -9.67032       54.14952        4.16042
N         -6.03595       56.38916        6.88881
C         -4.68409       56.62364        7.35415
H         -4.12923       57.21219        6.59431
H         -4.72027       57.20198        8.30134
H         -4.12988       55.68044        7.54377
H         -6.61624       57.21355        6.69941
Ca       -11.70734       56.29412        0.49211
O        -13.91462       56.66964        2.96235
H        -14.18723       56.57593        2.01503
H        -14.60146       56.16833        3.46902
O        -13.72278       59.52415        2.32121
H        -14.22117       60.09594        1.68672
H        -14.26666       59.55049        3.14688

Ca 1.0



