%chk=holoCaM.loop1.water2.frame61.chk
%nprocshared=20
%mem=10GB
%nosave
#b3lyp/svp scf=(tight,noincore,xqc) Test 
#IOP(5/87=12) Density=Current Pop=(MK,readradii) iop(6/33=2) iop(6/42=6)

holoCaM.loop1.water2.frame61 

   0  1 
C         56.76827       14.62715      106.98757
C         55.73074       15.65027      107.33825
O         55.31746       15.69498      108.48824
H         57.67060       14.78880      107.61457
H         56.36622       13.61121      107.18053
H         57.06334       14.69818      105.91979
N         55.27630       16.52865      106.39986
C         54.30609       17.56931      106.71068
C         52.96231       16.93932      107.07950
O         52.29325       16.38377      106.21980
C         54.18577       18.53181      105.51369
C         53.34500       19.74077      105.77487
O         53.18567       20.54902      104.87977
O         52.78612       19.96305      106.97667
H         55.67391       16.48153      105.44859
H         54.71736       18.15168      107.56677
H         53.77304       17.98348      104.63953
H         55.20207       18.89856      105.24702
N         52.56406       16.91949      108.38008
C         51.37804       16.22343      108.87469
C         50.06463       16.92761      108.54792
O         49.06634       16.24255      108.37829
C         51.50436       15.97305      110.40274
C         51.48843       17.24757      111.26919
C         51.82384       16.93853      112.73390
C         51.85737       18.22944      113.56516
N         52.23228       17.95693      114.95210
H         53.22091       17.30372      109.06562
H         51.36523       15.20392      108.42671
H         52.46557       15.43533      110.56741
H         50.68364       15.30414      110.74312
H         50.49227       17.73073      111.20637
H         52.24061       17.96533      110.90361
H         52.82599       16.45776      112.78267
H         51.07146       16.23738      113.15555
H         50.85642       18.71458      113.53902
H         52.59858       18.93230      113.12559
H         53.18907       17.53520      114.98951
H         52.24162       18.85645      115.48547
H         51.54087       17.30772      115.39222
N         49.96991       18.28919      108.57364
C         48.70189       19.03143      108.50049
C         48.60733       19.97892      107.30373
O         47.59850       20.66043      107.18236
C         48.49177       19.78187      109.83869
C         49.56439       20.79410      110.14555
O         49.63079       21.29039      111.25832
O         50.49003       21.10346      109.21902
H         50.84005       18.81540      108.72436
H         47.84986       18.32405      108.40148
H         48.50764       19.01350      110.64267
H         47.49845       20.27825      109.87144
N         49.58003       20.03991      106.35297
C         49.47698       20.84532      105.14619
C         49.57061       22.33977      105.37337
O         48.68799       23.06272      104.93388
H         50.39913       19.42396      106.43123
H         48.54045       20.58588      104.60471
H         50.32638       20.58164      104.48041
N         50.66746       22.87486      105.97784
C         50.96780       24.30666      106.02189
C         52.31007       24.60550      105.33849
O         52.77986       25.73211      105.42478
C         50.90461       24.84508      107.46814
C         51.70812       24.08432      108.47801
O         51.10687       23.62829      109.59069
O         52.90281       23.91325      108.33085
H         51.36675       22.22963      106.37602
H         50.20983       24.90024      105.46435
H         49.84509       24.82530      107.80344
H         51.22851       25.90864      107.47141
N         52.94754       23.66684      104.57676
C         54.18834       23.89720      103.85361
C         55.43174       24.00502      104.71778
O         56.49518       24.16560      104.13824
H         52.49293       22.76227      104.41680
H         54.08414       24.80411      103.21872
H         54.36068       23.03276      103.17460
N         55.40043       23.92841      106.08289
C         56.60168       24.03348      106.91314
C         56.74717       22.83248      107.84285
O         55.85424       22.00311      107.92798
C         56.57878       25.35007      107.73124
C         56.55955       26.59455      106.82822
O         55.50375       25.36866      108.63729
H         54.50165       23.81196      106.55661
H         57.50789       24.05518      106.26965
H         57.51361       25.41884      108.32756
H         54.68755       25.64110      108.14408
H         56.57863       27.51101      107.45537
H         57.44854       26.60030      106.16328
H         55.64306       26.61785      106.20068
N         57.89933       22.68942      108.56176
C         58.17346       21.61208      109.50779
C         58.50487       22.22570      110.86856
O         59.34083       23.11168      110.95984
C         59.30015       20.68875      108.94098
C         58.70096       19.86727      107.75880
C         59.86866       19.74616      110.02095
C         59.66177       18.88383      107.08927
H         58.65039       23.37974      108.41456
H         57.28214       20.96047      109.64825
H         60.14815       21.31579      108.58752
H         58.33605       20.56591      106.97653
H         57.82927       19.27684      108.12366
H         59.08599       19.07194      110.40890
H         60.70154       19.13415      109.62083
H         60.30296       20.32595      110.86065
H         60.54581       19.41643      106.68459
H         59.98706       18.09148      107.79442
H         59.13357       18.37356      106.25498
N         57.89734       21.72544      111.98146
C         58.09914       22.18259      113.35435
C         58.99735       21.19878      114.08900
O         59.50867       20.28781      113.46717
C         56.72131       22.29744      114.06662
C         55.79183       23.27198      113.34226
O         56.12374       21.02665      114.14490
H         57.28805       20.91636      111.85597
H         58.60602       23.17160      113.37206
H         56.87367       22.68691      115.09630
H         55.35581       21.09655      114.77010
H         56.24922       24.28229      113.30361
H         55.59495       22.91962      112.31074
H         54.82415       23.34330      113.88330
N         59.24847       21.33504      115.42055
C         60.10851       20.42632      116.17986
C         59.60175       18.98345      116.14366
O         60.37089       18.10786      115.77100
C         60.26515       20.91352      117.64444
C         60.98773       22.26916      117.70988
O         59.00823       21.01119      118.26416
H         58.81513       22.12609      115.91365
H         61.12820       20.43570      115.73112
H         60.89367       20.16618      118.18302
H         59.17151       21.08622      119.24033
H         61.99046       22.19133      117.23828
H         60.41483       23.06741      117.19471
H         61.12448       22.57360      118.76859
N         58.33107       18.65792      116.51992
C         57.81984       17.28168      116.54492
C         57.90803       16.63123      115.17527
O         58.47488       15.55411      115.05911
C         56.35417       17.23648      117.02989
C         56.21013       17.68843      118.49211
C         54.75644       17.54938      118.96668
C         54.54423       18.02590      120.41452
N         55.30381       17.23491      121.38555
H         57.70112       19.42618      116.79313
H         58.42356       16.67430      117.25681
H         56.00028       16.18269      116.96640
H         55.71012       17.85976      116.37023
H         56.52646       18.74663      118.60254
H         56.86840       17.05025      119.11798
H         54.43314       16.48874      118.87955
H         54.10630       18.16523      118.30710
H         53.46052       17.93363      120.64889
H         54.82331       19.09895      120.50498
H         55.07249       16.21974      121.28705
H         56.33052       17.38266      121.26332
H         55.04734       17.54649      122.35005
N         57.39724       17.26555      114.08785
C         57.47729       16.76422      112.71324
C         58.90239       16.37093      112.35263
O         59.10042       15.28062      111.83419
C         56.95749       17.86009      111.76017
C         55.43692       18.02884      111.88624
C         54.92578       19.27057      111.21690
O         55.00181       20.34675      111.77871
O         54.21432       19.18221      110.09127
H         56.98274       18.19664      114.24994
H         56.84509       15.85651      112.58712
H         57.17580       17.60999      110.69786
H         57.49007       18.79130      112.01896
H         55.10104       18.07447      112.94345
H         54.96450       17.13148      111.42951
N         59.95023       17.18010      112.65005
C         61.32198       16.82387      112.36694
H         62.00240       17.61201      112.75591
H         61.57622       15.86447      112.86655
H         61.47064       16.72942      111.27156
H         59.77169       18.05936      113.13514
Ca        52.65830       20.73682      109.65381
O         53.51631       23.99603      111.17847
H         54.36300       24.23261      110.72438
H         53.25280       24.82002      111.65877
O         52.56584       21.74756      113.14258
H         52.14743       22.64365      113.18501
H         52.16075       21.32350      112.34549

Ca 1.0



