%chk=holoCaM-CaMKII.loop2.water2.frame82.chk
%nprocshared=20
%mem=10GB
%nosave
#b3lyp/svp scf=(tight,noincore,xqc) Test 
#IOP(5/87=12) Density=Current Pop=(MK,readradii) iop(6/33=2) iop(6/42=6)

holoCaM-CaMKII.loop2.water2.frame82 

   -2  1 
C         -1.95475       69.59872       82.95260
C         -3.17570       69.23107       83.73808
O         -4.18390       68.88369       83.14210
H         -1.12736       68.90890       83.22745
H         -2.14402       69.49638       81.86226
H         -1.65542       70.64115       83.17885
N         -3.13636       69.23068       85.09902
C         -4.21512       68.66923       85.89815
C         -5.31838       69.69255       86.15291
O         -5.08909       70.65306       86.87515
C         -3.63374       68.14455       87.22608
C         -4.57267       67.27141       87.99409
O         -4.19183       66.80963       89.19902
O         -5.64681       66.93128       87.52314
H         -2.24127       69.46823       85.55501
H         -4.60987       67.78551       85.34672
H         -3.31887       69.00402       87.85631
H         -2.73443       67.52594       87.01947
N         -6.54246       69.55063       85.57347
C         -7.63601       70.50003       85.75129
C         -8.47422       70.23354       86.99997
O         -9.28965       71.08763       87.32090
C         -8.57197       70.43912       84.53167
H         -6.65320       68.80066       84.88829
H         -7.21378       71.52863       85.78988
H         -9.39271       71.18291       84.62147
H         -8.00611       70.65658       83.60094
H         -9.02379       69.42602       84.43886
N         -8.43875       69.04008       87.67104
C         -9.43337       68.69072       88.69429
C         -8.88692       67.95685       89.92090
O         -9.67339       67.69886       90.82253
C        -10.53850       67.84178       88.02962
C         -9.98774       66.63585       87.31989
O        -10.16938       66.49430       86.12145
O         -9.27236       65.72198       87.99364
H         -7.82838       68.29554       87.30800
H         -9.91984       69.61059       89.08632
H        -11.07207       68.47239       87.28600
H        -11.28152       67.51687       88.78961
N         -7.59108       67.56249       90.03622
C         -7.08405       66.82175       91.18114
C         -7.77931       65.48672       91.38008
O         -8.31494       65.27010       92.45793
H         -6.92657       67.79923       89.29718
H         -7.19195       67.44450       92.09674
H         -6.00124       66.62457       91.03869
N         -7.78570       64.53293       90.40041
C         -8.35136       63.19275       90.58564
C         -7.29580       62.09079       90.41858
O         -7.65916       60.92249       90.42307
C         -9.57413       62.94789       89.66976
C         -9.31972       62.80162       88.19356
N        -10.32140       62.35518       87.40313
O         -8.22845       63.05082       87.70784
H         -7.34795       64.75928       89.49642
H         -8.75714       63.08838       91.61542
H        -10.34121       63.73709       89.82878
H        -10.02138       61.98416       89.99683
H        -11.24463       62.12799       87.79713
H        -10.17495       62.19433       86.40372
N         -5.96597       62.38313       90.32229
C         -4.90888       61.38564       90.21481
C         -4.75045       60.72894       88.84859
O         -3.81634       59.95114       88.71218
H         -5.66207       63.35756       90.43500
H         -5.03869       60.61721       91.00783
H         -3.94376       61.90139       90.40960
N         -5.58424       60.97677       87.79661
C         -5.42294       60.38237       86.46410
C         -5.38224       61.46617       85.38542
O         -5.50538       62.63708       85.71098
C         -6.58187       59.38854       86.18690
C         -6.61489       58.23776       87.20429
O         -7.82335       60.04849       86.12762
H         -6.38297       61.59894       87.94362
H         -4.47149       59.80884       86.40397
H         -6.41494       58.90995       85.19935
H         -8.09726       60.27552       87.05316
H         -7.42236       57.52404       86.93670
H         -5.64637       57.69329       87.19801
H         -6.80464       58.61744       88.23046
N         -5.26886       61.14308       84.06342
C         -5.35101       62.12946       82.98751
C         -6.68222       61.93735       82.28570
O         -6.99158       60.82328       81.88303
C         -4.16394       62.01471       81.98206
C         -2.80288       62.14458       82.71198
C         -4.30349       63.10140       80.88834
C         -1.59089       62.01437       81.78153
H         -5.19673       60.14993       83.79508
H         -5.31926       63.16043       83.40043
H         -4.20378       61.01591       81.49290
H         -2.72592       61.33457       83.46811
H         -2.74142       63.12050       83.23916
H         -3.52057       63.00999       80.11085
H         -5.26606       63.00408       80.35068
H         -4.24874       64.11701       81.33695
H         -1.62603       61.05191       81.22851
H         -1.54091       62.85281       81.05692
H         -0.65712       62.04836       82.38033
N         -7.50342       63.00320       82.06961
C         -8.79141       62.91118       81.39595
C         -8.66588       63.40769       79.97061
O         -7.59093       63.83428       79.58799
C         -9.86017       63.66915       82.20873
C        -10.10438       62.96087       83.51740
O        -11.17415       62.40802       83.71120
O         -9.15446       62.89811       84.47139
H         -7.17523       63.94102       82.33363
H         -9.10412       61.84796       81.29872
H        -10.80981       63.67189       81.63372
H         -9.56284       64.73000       82.37567
N         -9.69650       63.27895       79.08780
C         -9.55173       63.56839       77.66315
C         -9.23970       65.04040       77.39261
O         -8.26260       65.27873       76.69856
C        -10.77064       63.05698       76.85880
C        -10.55548       63.13972       75.36307
C        -11.39478       63.93618       74.56535
C         -9.52468       62.40351       74.74704
C        -11.20346       63.99752       73.18085
C         -9.33804       62.46794       73.36320
C        -10.17657       63.26427       72.58053
H        -10.58438       62.87450       79.42407
H         -8.69158       62.96282       77.29895
H        -11.68720       63.60032       77.14228
H        -10.94506       61.98761       77.10876
H        -12.19715       64.50896       75.01271
H         -8.86861       61.77247       75.33282
H        -11.85357       64.61208       72.57205
H         -8.54496       61.89691       72.89713
H        -10.03205       63.31066       71.50877
N         -9.97487       66.08593       77.89956
C         -9.64511       67.49574       77.68711
C         -8.18379       67.81079       77.95086
O         -7.53714       68.44251       77.12739
C        -10.52069       68.22705       78.71824
C        -11.74305       67.34761       78.76391
C        -11.12110       65.95549       78.77953
H         -9.93519       67.78240       76.65148
H        -10.06528       68.16183       79.73323
H        -10.70380       69.29862       78.49031
H        -12.44592       67.54686       79.60055
H        -12.28420       67.48144       77.79911
H        -10.76056       65.67039       79.79231
H        -11.89268       65.24913       78.43276
N         -7.60246       67.35444       79.09116
C         -6.20995       67.57754       79.46582
C         -5.27628       67.00327       78.41462
O         -4.38950       67.70585       77.95176
C         -5.91663       66.89783       80.81653
C         -6.77534       67.44341       81.97658
C         -6.58750       66.61985       83.21257
O         -7.45731       66.74689       84.22008
O         -5.77127       65.71503       83.25080
H         -8.19354       66.78154       79.71059
H         -6.01498       68.66639       79.58551
H         -4.84388       67.02599       81.08014
H         -6.12054       65.80900       80.70666
H         -7.85099       67.35343       81.72814
H         -6.57055       68.51512       82.17759
N         -5.43416       65.72335       77.98341
C         -4.57647       65.10156       77.00288
H         -3.54493       65.02238       77.40354
H         -4.94938       64.07747       76.77960
H         -4.57939       65.69090       76.06276
H         -6.21049       65.16990       78.34938
Ca        -8.03565       64.75458       84.98349
O         -5.12692       64.09965       87.86458
H         -5.15483       64.60594       88.70878
H         -4.20166       63.75258       87.81859
O         -3.82658       65.14815       85.37586
H         -3.56505       65.13853       84.42213
H         -2.99356       65.38179       85.85525

Ca 1.0



