%chk=holoCaM-CaMKII.loop4.water1.frame497.chk
%nprocshared=20
%mem=10GB
%nosave
#b3lyp/svp scf=(tight,noincore,xqc) Test 
#IOP(5/87=12) Density=Current Pop=(MK,readradii) iop(6/33=2) iop(6/42=6)

holoCaM-CaMKII.loop4.water1.frame497 

   -3  1 
C         15.47240       87.08217       97.18262
C         16.31964       86.97743       95.94997
O         16.53187       85.87352       95.46894
H         14.46886       86.65600       96.96860
H         15.94203       86.51945       98.01393
H         15.33821       88.14015       97.49345
N         16.80277       88.09933       95.35137
C         17.51464       88.06117       94.08440
C         18.88524       87.39055       94.22613
O         19.65589       87.81279       95.07718
C         17.67414       89.49657       93.52174
C         17.96008       89.47189       92.04708
O         18.16157       90.51054       91.44587
O         17.87869       88.29755       91.39088
H         16.57837       89.01632       95.76891
H         16.86017       87.50288       93.37791
H         18.46735       90.03988       94.08164
H         16.72229       90.06064       93.63137
N         19.27073       86.37750       93.39048
C         20.57458       85.70641       93.45898
C         21.49349       86.06430       92.28559
O         22.60436       85.55082       92.26802
C         20.42446       84.15285       93.57618
C         19.77047       83.52429       92.31774
C         19.66538       83.77590       94.85844
C         19.83781       81.99720       92.27467
H         18.62167       86.09511       92.65055
H         21.12544       86.04688       94.36379
H         21.45260       83.73495       93.66687
H         20.29656       83.88504       91.40762
H         18.70941       83.82198       92.26321
H         20.17046       84.21645       95.74358
H         18.61935       84.14469       94.81913
H         19.65021       82.67701       95.00509
H         19.38657       81.64037       91.32381
H         20.89460       81.65731       92.30960
H         19.27121       81.53857       93.10869
N         21.14866       86.95932       91.30982
C         22.06617       87.35323       90.23546
C         22.54733       88.78725       90.41154
O         23.37353       89.21969       89.61877
C         21.36954       87.27932       88.86159
C         20.78138       85.94311       88.51797
O         21.49977       84.97388       88.33632
O         19.44718       85.83047       88.37312
H         20.23426       87.42609       91.35510
H         22.96457       86.69921       90.23094
H         22.07727       87.56023       88.05204
H         20.56487       88.04096       88.85303
N         22.04897       89.60580       91.38276
C         22.40094       91.00950       91.49120
C         22.03642       91.75220       90.22549
O         22.87596       92.45047       89.67630
H         21.35067       89.25629       92.05373
H         23.48188       91.12516       91.72256
H         21.81873       91.45097       92.32989
N         20.78756       91.61761       89.70049
C         20.31034       92.30965       88.50883
C         19.09474       93.18429       88.82467
O         18.52219       93.74780       87.90233
C         20.05448       91.29669       87.36454
C         18.98015       90.26756       87.58773
O         18.75007       89.44512       86.71596
O         18.26481       90.23349       88.72111
H         20.14113       90.97589       90.17369
H         21.09589       92.99249       88.11737
H         21.00638       90.75575       87.16849
H         19.79147       91.86267       86.44485
N         18.69060       93.40625       90.11313
C         17.61192       94.31075       90.47955
C         16.21659       93.77257       90.24619
O         15.28325       94.48820       90.58692
H         19.22680       93.00519       90.89438
H         17.74996       95.28538       89.96213
H         17.68043       94.50315       91.57218
N         15.97135       92.54814       89.69598
C         14.62478       92.01780       89.50393
C         14.44904       90.65937       90.15124
O         15.42213       90.05250       90.57946
C         14.26245       92.03268       87.99703
C         15.22389       91.32790       87.01047
C         15.15420       89.81736       86.98786
N         14.77621       89.17023       85.85881
O         15.46952       89.16700       87.97011
H         16.76117       91.97322       89.38664
H         13.88688       92.68138       90.00693
H         14.27964       93.10774       87.71179
H         13.22380       91.67223       87.83338
H         16.26911       91.65768       87.17964
H         14.94457       91.68971       85.99768
H         14.52279       89.69057       85.00595
H         14.74515       88.14086       85.82931
N         13.20138       90.13283       90.27817
C         12.91775       88.80579       90.80900
C         12.12309       88.05674       89.75374
O         11.11998       88.56908       89.27190
C         12.16697       88.88479       92.16633
C         11.89274       87.47455       92.72758
C         13.00251       89.66011       93.20114
H         12.39743       90.70749       89.97656
H         13.86353       88.25524       91.01773
H         11.19648       89.40888       92.02741
H         12.84578       86.92551       92.89253
H         11.35811       87.53897       93.69930
H         11.25888       86.88429       92.03579
H         13.98373       89.16194       93.36852
H         13.18641       90.70006       92.86171
H         12.46556       89.70960       94.17270
N         12.51169       86.81756       89.36735
C         11.86642       86.02189       88.33426
C         11.01198       84.95777       89.00160
O         10.98931       84.90171       90.21961
C         13.00370       85.45096       87.44602
C         12.57639       84.54883       86.31986
N         13.02245       83.27044       86.26058
O         11.83813       84.97618       85.44513
H         13.28365       86.37695       89.87997
H         11.18153       86.64900       87.72149
H         13.70993       84.89328       88.10045
H         13.56417       86.30225       87.00392
H         13.65583       82.89665       86.98331
H         12.73870       82.64801       85.49014
N         10.23478       84.10824       88.27979
C          9.42866       83.05255       88.88624
C         10.31346       82.06325       89.62393
O         10.07046       81.79969       90.79312
C          8.61795       82.32512       87.79205
C          7.84386       81.14324       88.32939
C          6.87337       81.30673       89.33303
C          8.10062       79.85610       87.82742
C          6.17689       80.19883       89.82698
C          7.40090       78.75246       88.31902
C          6.43647       78.91987       89.32221
O          5.75556       77.86192       89.80642
H         10.20861       84.21549       87.25627
H          8.70739       83.50255       89.60499
H          9.31658       81.98028       86.99781
H          7.91132       83.04488       87.32507
H          6.65830       82.28756       89.73738
H          8.84431       79.70409       87.05491
H          5.43469       80.33462       90.60352
H          7.61124       77.76841       87.91965
H          5.90501       76.96260       89.48093
N         11.35915       81.47180       88.98291
C         12.22385       80.45890       89.59080
C         13.05279       80.98159       90.77020
O         13.75810       80.18551       91.37476
C         13.12666       79.82596       88.50769
C         12.27746       79.11185       87.43384
C         13.13340       78.49511       86.36902
O         14.03201       77.54471       86.68752
O         13.00293       78.83677       85.20406
H         11.51873       81.73891       88.00155
H         11.57920       79.64384       89.98885
H         13.79324       79.06986       88.97801
H         13.76143       80.61169       88.04222
H         11.57608       79.82257       86.94908
H         11.67189       78.31183       87.91211
N         12.96677       82.27229       91.20233
C         13.59827       82.78213       92.41179
C         12.52587       82.89858       93.48602
O         12.69594       82.32251       94.55116
C         14.30677       84.12309       92.11721
C         15.37779       83.93875       91.02690
C         16.13484       85.19671       90.71940
O         17.47327       85.19197       90.77085
O         15.56056       86.20694       90.35705
H         12.36840       82.93106       90.70000
H         14.36866       82.07433       92.79285
H         14.78109       84.50052       93.05031
H         13.56230       84.87387       91.77534
H         14.89233       83.59879       90.08875
H         16.10382       83.16105       91.35155
N         11.35446       83.55164       93.23955
C         10.23243       83.58941       94.15462
H          9.36454       83.07976       93.67992
H         10.44896       83.07969       95.11539
H          9.95272       84.64371       94.35582
H         11.21465       84.00411       92.33465
Ca        18.23498       87.47341       89.33444
O         16.46682       85.87265       87.23280
H         16.79533       85.03009       87.63615
H         16.25769       85.63376       86.29515

Ca 1.0



