%chk=holoCaM-CaMKII.loop3.water2.frame86.chk
%nprocshared=20
%mem=10GB
%nosave
#b3lyp/svp scf=(tight,noincore,xqc) Test 
#IOP(5/87=12) Density=Current Pop=(MK,readradii) iop(6/33=2) iop(6/42=6)

holoCaM-CaMKII.loop3.water2.frame86 

   0  1 
C          3.18407       42.99237       56.06338
C          4.07302       42.80877       54.87028
O          3.59961       42.38258       53.82692
H          2.14127       42.68683       55.83422
H          3.56209       42.37933       56.90860
H          3.18641       44.06244       56.36142
N          5.39387       43.12045       54.96609
C          6.34173       43.00930       53.86881
C          7.39153       41.97147       54.22549
O          8.56639       42.28574       54.35291
C          6.90192       44.41525       53.56854
C          7.93849       44.42421       52.48301
O          9.15900       44.93154       52.73323
O          7.68351       43.98682       51.37511
H          5.75168       43.46593       55.87058
H          5.84672       42.65089       52.93863
H          7.34769       44.84877       54.48873
H          6.05788       45.06537       53.24912
N          7.00524       40.67494       54.37371
C          7.93038       39.56624       54.58846
C          8.87642       39.42090       53.40233
O         10.07953       39.44453       53.62530
C          7.13442       38.26927       54.86847
C          6.57284       38.30928       56.30971
C          5.69006       37.10374       56.67335
C          4.26740       37.15789       56.08425
N          3.47000       38.24171       56.67150
H          5.99743       40.46489       54.29239
H          8.55872       39.76201       55.48762
H          7.81107       37.38773       54.81246
H          6.34066       38.14041       54.10119
H          6.03349       39.25427       56.51679
H          7.45474       38.29050       56.98785
H          5.58436       37.05630       57.77942
H          6.20479       36.17284       56.35033
H          3.76588       36.19481       56.32695
H          4.29684       37.25652       54.97861
H          2.49137       38.18322       56.30926
H          3.44040       38.14339       57.71340
H          3.85191       39.17928       56.41791
N          8.42488       39.30267       52.11590
C          9.34132       39.18494       50.97029
C         10.30180       40.37305       50.80999
O         11.24345       40.25276       50.03792
C          8.59910       38.92717       49.64164
C          7.71197       40.06643       49.23122
O          6.63190       40.37793       49.96799
O          7.94886       40.69292       48.21110
H          7.40725       39.27134       51.96467
H          9.97097       38.28804       51.16438
H          7.98341       38.00611       49.71831
H          9.35898       38.75599       48.84633
N         10.17120       41.51632       51.53981
C         11.19387       42.54567       51.60500
C         11.35722       43.42948       50.38804
O         12.23289       44.28171       50.45711
H          9.37498       41.61841       52.17491
H         12.16673       42.06300       51.84531
H         10.95910       43.21855       52.45469
N         10.59790       43.33428       49.25314
C         10.85639       44.22347       48.11648
C         10.57833       45.69759       48.42385
O         10.99923       46.53369       47.63542
C         10.12554       43.78566       46.82653
C          8.61954       43.87353       46.85607
N          7.91385       43.61087       45.73275
O          8.02997       44.18771       47.87612
H          9.87568       42.60403       49.17785
H         11.94297       44.12973       47.88966
H         10.41362       42.74145       46.57845
H         10.48234       44.44001       46.00095
H          8.39513       43.35384       44.85848
H          6.88625       43.67899       45.73048
N          9.87986       46.09409       49.53040
C          9.67769       47.48717       49.89993
C          8.22615       47.92853       49.88687
O          7.99271       49.07561       50.23683
H          9.48626       45.38532       50.16075
H         10.22950       48.17081       49.21806
H         10.09123       47.63470       50.92048
N          7.20926       47.12570       49.44329
C          5.83158       47.59872       49.30570
C          4.83706       46.68846       50.01609
O          5.19880       45.61744       50.47540
C          5.43578       47.64721       47.80971
C          6.26549       48.58310       46.96079
C          7.61610       48.31044       46.67436
C          5.67168       49.73171       46.40956
C          8.35639       49.17633       45.86410
C          6.41366       50.59595       45.60171
C          7.75983       50.32108       45.32615
O          8.48499       51.14444       44.54292
H          7.41978       46.17575       49.11989
H          5.72507       48.61864       49.73409
H          4.37386       47.96804       47.74807
H          5.49494       46.63321       47.36638
H          8.09893       47.42308       47.05971
H          4.63151       49.96182       46.60464
H          9.39377       48.95268       45.64878
H          5.93860       51.47639       45.18802
H          8.10607       51.94280       44.14792
N          3.52892       47.07895       50.10539
C          2.44031       46.24149       50.60190
C          1.34611       46.21869       49.53994
O          0.85545       47.27499       49.16837
C          1.86915       46.79134       51.94139
C          2.97218       46.79377       53.03120
C          0.65767       45.93898       52.39340
C          2.52589       47.42455       54.35239
H          3.28252       48.02601       49.78142
H          2.79820       45.20612       50.79979
H          1.52337       47.83624       51.77726
H          3.83967       47.38586       52.67076
H          3.31881       45.75381       53.22355
H         -0.14619       45.94452       51.62846
H          0.96353       44.88553       52.57222
H          0.19338       46.34261       53.31343
H          2.19308       48.47063       54.18318
H          1.70665       46.84930       54.82790
H          3.37843       47.43255       55.06300
N          0.88362       45.03530       49.05200
C         -0.20613       44.91613       48.08916
C         -1.39012       44.19114       48.72232
O         -1.34157       43.85925       49.89790
C          0.30232       44.19480       46.83094
O          0.65849       42.87081       47.13192
H          1.30079       44.17140       49.40574
H         -0.56298       45.92021       47.77239
H          1.16231       44.77015       46.41063
H         -0.47486       44.17902       46.03885
H          1.60659       42.75333       46.87083
N         -2.50655       43.93196       47.98473
C         -3.71362       43.31071       48.52259
C         -3.46268       41.93909       49.12541
O         -3.85961       41.72631       50.26261
C         -4.77517       43.19184       47.42184
H         -2.51135       44.22056       46.99548
H         -4.13535       43.97340       49.31161
H         -5.01073       44.19731       47.01225
H         -4.41602       42.54513       46.59285
H         -5.71035       42.75817       47.83685
N         -2.85038       40.94813       48.41673
C         -2.69880       39.58609       48.92740
C         -1.90782       39.53849       50.22588
O         -2.44311       39.07768       51.22462
C         -2.03546       38.68876       47.87379
H         -2.51631       41.16490       47.46438
H         -3.71494       39.17235       49.11709
H         -2.64569       38.68000       46.94571
H         -1.01736       39.05199       47.61857
H         -1.95936       37.64644       48.25110
N         -0.62069       39.98264       50.28085
C          0.20774       39.90732       51.49074
C         -0.32932       40.73030       52.65995
O          0.20056       40.58618       53.75325
C          1.66219       40.33029       51.16585
C          1.74971       41.81344       50.77082
C          3.06181       42.16112       50.13521
O          3.08302       42.51730       48.97003
O          4.21809       42.12769       50.81216
H         -0.20808       40.33388       49.40499
H          0.22522       38.83912       51.80279
H          2.00491       39.69820       50.31694
H          2.33908       40.13802       52.02770
H          1.56188       42.46941       51.64812
H          0.96445       42.03204       50.02306
N         -1.35022       41.62266       52.50863
C         -1.89712       42.41276       53.59265
H         -2.98161       42.19436       53.69100
H         -1.40814       42.19855       54.56561
H         -1.76929       43.49104       53.36150
H         -1.76163       41.77565       51.58199
Ca         5.91099       42.95612       49.56198
O          4.40395       44.32456       46.96314
H          3.80672       43.60044       46.65434
H          4.69363       44.76824       46.12750
O          5.47983       41.25954       46.68950
H          6.25108       41.00154       46.12476
H          4.73036       41.35946       46.05110

Ca 1.0



