%chk=holoCaM-CaMKII.loop2.water2.frame482.chk
%nprocshared=20
%mem=10GB
%nosave
#b3lyp/svp scf=(tight,noincore,xqc) Test 
#IOP(5/87=12) Density=Current Pop=(MK,readradii) iop(6/33=2) iop(6/42=6)

holoCaM-CaMKII.loop2.water2.frame482 

   -2  1 
C         60.21968       78.32751       82.18996
C         60.35348       79.08844       83.48403
O         61.10467       78.66560       84.34849
H         59.51080       78.82685       81.49399
H         61.20762       78.27207       81.68395
H         59.85219       77.29927       82.38347
N         59.67125       80.25153       83.66457
C         59.80794       81.11681       84.83448
C         59.27171       80.50259       86.11867
O         58.12580       80.07651       86.14679
C         59.06491       82.44242       84.56924
C         59.13709       83.40845       85.72396
O         60.31813       83.90364       86.15321
O         58.10530       83.75960       86.27332
H         59.07181       80.57509       82.88902
H         60.87784       81.34814       84.96071
H         57.99656       82.21343       84.35834
H         59.49709       82.93324       83.67166
N         60.03282       80.53843       87.25474
C         59.56655       80.11262       88.56961
C         59.60922       81.23069       89.62163
O         59.15620       80.96813       90.72764
C         60.45469       78.96069       89.05669
H         60.98591       80.91131       87.18987
H         58.51862       79.74927       88.50231
H         60.10927       78.58588       90.04420
H         60.43088       78.11933       88.33358
H         61.50737       79.30749       89.16235
N         60.19852       82.45080       89.40418
C         60.44078       83.41299       90.48966
C         60.11859       84.87513       90.15879
O         60.29793       85.71000       91.03557
C         61.90072       83.26128       90.97949
C         62.97311       83.51836       89.95235
O         64.26539       83.39539       90.30838
O         62.69748       83.81764       88.80337
H         60.63122       82.63416       88.49237
H         59.80596       83.16011       91.36691
H         62.03430       82.22041       91.34577
H         62.06799       83.94370       91.84067
N         59.62080       85.27140       88.95481
C         59.24711       86.64940       88.65429
C         60.39262       87.64944       88.57745
O         60.09611       88.82349       88.40221
H         59.41880       84.56297       88.24811
H         58.52128       86.99072       89.42356
H         58.73087       86.67751       87.66950
N         61.70863       87.29455       88.68097
C         62.80229       88.27408       88.64490
C         63.00435       88.94427       87.27413
O         63.90271       89.76625       87.15572
C         64.10909       87.63881       89.17714
C         64.79446       86.69147       88.22602
N         66.10302       86.85829       87.93019
O         64.18258       85.75795       87.73493
H         61.93960       86.30833       88.85184
H         62.55551       89.06428       89.38894
H         63.87411       87.10197       90.12230
H         64.82147       88.45158       89.43924
H         66.65376       87.62300       88.34717
H         66.57583       86.20156       87.29858
N         62.19275       88.67361       86.20851
C         62.27864       89.33929       84.91723
C         63.30643       88.75253       83.96937
O         63.33500       89.20109       82.83184
H         61.40156       88.03444       86.32671
H         62.42066       90.43444       85.05019
H         61.29883       89.21136       84.40842
N         64.18591       87.77517       84.33952
C         65.19553       87.23101       83.43186
C         65.26381       85.71424       83.50100
O         65.23108       85.15663       84.59002
C         66.58978       87.80304       83.77220
C         66.65481       89.31171       83.53031
O         66.93209       87.53969       85.10650
H         64.19739       87.45278       85.31694
H         64.99957       87.52922       82.37714
H         67.34553       87.35016       83.08501
H         67.35671       86.64277       85.12319
H         67.67914       89.68084       83.74626
H         66.41852       89.53826       82.46789
H         65.93862       89.85153       84.18404
N         65.53080       84.99847       82.36956
C         65.86987       83.57591       82.38460
C         67.10511       83.37071       83.25593
O         68.13843       83.97097       82.99211
C         66.09639       83.04223       80.92672
C         64.74036       83.03021       80.16610
C         66.72294       81.62997       80.92520
C         64.83933       82.62971       78.69170
H         65.57897       85.50632       81.47285
H         65.03051       82.99410       82.81819
H         66.81362       83.71736       80.40801
H         64.28799       84.04298       80.19509
H         64.04118       82.32770       80.67166
H         67.71133       81.63803       81.42724
H         66.06030       80.90079       81.43464
H         66.92806       81.27860       79.89490
H         63.82798       82.67315       78.23424
H         65.50690       83.32848       78.14611
H         65.20587       81.59106       78.56780
N         67.06290       82.47773       84.28617
C         68.21543       82.09999       85.09683
C         68.79014       80.81032       84.55385
O         68.23342       80.27953       83.60775
C         67.77668       81.90453       86.56129
C         67.25563       83.17467       87.15715
O         66.10241       83.24555       87.55194
O         68.07413       84.23520       87.28144
H         66.20057       81.93418       84.41825
H         69.01473       82.87083       85.02773
H         68.63160       81.56773       87.18305
H         66.98783       81.11778       86.60147
N         69.92958       80.25792       85.05313
C         70.49999       79.04397       84.47995
C         69.58142       77.83541       84.66937
O         69.29098       77.20253       83.66655
C         71.93545       78.78144       84.97759
C         72.58062       77.63765       84.22148
C         72.74042       77.70343       82.82189
C         73.03195       76.49585       84.90415
C         73.32779       76.64569       82.12441
C         73.62577       75.44173       84.20103
C         73.77105       75.51565       82.81298
H         70.42770       80.74134       85.81765
H         70.60377       79.22973       83.38835
H         71.94756       78.58812       86.06544
H         72.54685       79.69245       84.79964
H         72.41138       78.56975       82.26303
H         72.92531       76.42015       85.97872
H         73.43999       76.70433       81.04902
H         73.97326       74.56571       84.73227
H         74.22849       74.69873       82.27018
N         69.04457       77.46671       85.88341
C         68.06920       76.38827       86.05310
C         67.00015       76.37703       84.97898
O         66.69267       75.33374       84.41933
C         67.41570       76.72660       87.40770
C         68.58365       77.28276       88.17939
C         69.23978       78.17846       87.13373
H         68.59933       75.41240       86.11067
H         66.69583       77.57151       87.29699
H         66.87667       75.88354       87.88960
H         68.32753       77.80029       89.12938
H         69.26556       76.43219       88.40349
H         68.71629       79.15447       87.06985
H         70.29774       78.32245       87.41719
N         66.39557       77.54596       84.65889
C         65.29559       77.69975       83.72035
C         65.73758       77.35810       82.30625
O         65.12917       76.49503       81.69044
C         64.74152       79.13796       83.85354
C         64.23368       79.34873       85.30333
C         63.73572       80.71805       85.61135
O         63.30525       80.94208       86.72936
O         63.75519       81.71314       84.71205
H         66.74537       78.38732       85.14128
H         64.46487       77.01587       84.00812
H         63.90088       79.29473       83.14254
H         65.54199       79.86808       83.61741
H         65.02198       79.15608       86.05479
H         63.41207       78.62747       85.49601
N         66.81368       77.97389       81.74454
C         67.32628       77.68363       80.42170
H         68.36809       77.30677       80.51020
H         66.71973       76.92382       79.88828
H         67.33975       78.61680       79.82048
H         67.32201       78.67058       82.28867
Ca        62.25877       83.29689       85.20185
O         61.36932       86.12061       84.65321
H         60.82948       86.89615       84.36630
H         60.89955       85.35713       84.24151
O         62.34363       84.09539       82.36633
H         61.36226       83.99255       82.29408
H         62.66486       83.18653       82.58877

Ca 1.0



