%chk=holoCaM.loop3.water2.frame128.chk
%nprocshared=20
%mem=10GB
%nosave
#b3lyp/svp scf=(tight,noincore,xqc) Test 
#IOP(5/87=12) Density=Current Pop=(MK,readradii) iop(6/33=2) iop(6/42=6)

holoCaM.loop3.water2.frame128 

   0  1 
C          7.55462       93.31938       14.74492
C          7.37994       91.84147       14.91763
O          8.06237       91.26842       15.75387
H          8.60576       93.53239       14.45614
H          6.88244       93.71879       13.95761
H          7.33038       93.83215       15.70329
N          6.48147       91.14849       14.16026
C          6.30676       89.70612       14.28377
C          7.61238       89.03221       13.90335
O          8.04500       89.19596       12.76961
C          5.14580       89.23479       13.37696
C          4.77715       87.78900       13.56171
O          5.41164       87.01898       14.46268
O          3.87012       87.31109       12.90203
H          5.90760       91.66682       13.47691
H          6.03253       89.48143       15.33901
H          5.40781       89.41494       12.31071
H          4.24010       89.83260       13.61613
N          8.33377       88.32037       14.81865
C          9.67924       87.83662       14.51630
C          9.67772       86.52171       13.74853
O         10.73999       86.11298       13.30087
C         10.58749       87.85608       15.76726
C         10.59782       89.27562       16.37624
C         11.75356       89.52934       17.34625
C         11.68951       90.98090       17.85696
N         12.88402       91.33229       18.62161
H          7.97343       88.23891       15.78170
H         10.15448       88.57307       13.82834
H         11.61569       87.59836       15.43098
H         10.27002       87.11258       16.53103
H          9.62797       89.46815       16.88348
H         10.71837       90.01363       15.55253
H         12.70525       89.38243       16.79038
H         11.72298       88.82178       18.20284
H         10.78248       91.11125       18.48933
H         11.61089       91.68120       16.99461
H         12.99933       90.69027       19.43777
H         13.72573       91.27757       18.00225
H         12.78971       92.31558       18.96579
N          8.51782       85.85118       13.48657
C          8.41399       84.71769       12.57027
C          7.57694       85.08169       11.33391
O          7.52412       84.27910       10.41257
C          7.88222       83.47639       13.30965
C          6.58682       83.74065       14.02165
O          5.50000       84.14083       13.34185
O          6.52160       83.61634       15.23437
H          7.64564       86.19134       13.90569
H          9.41956       84.45383       12.17428
H          8.64044       83.16924       14.06388
H          7.75551       82.63442       12.59547
N          6.96831       86.30040       11.20852
C          6.38053       86.80980        9.98059
C          5.12823       86.14114        9.45301
O          4.67812       86.60304        8.41257
H          7.01813       86.97727       11.97626
H          7.15803       86.77690        9.18631
H          6.11974       87.87939       10.14153
N          4.50132       85.07578       10.03847
C          3.34798       84.45268        9.38297
C          2.10830       85.35400        9.31365
O          1.18993       84.99183        8.59172
C          2.98589       83.06732        9.97590
C          2.45000       83.06952       11.38415
N          1.96151       81.92907       11.92233
O          2.43659       84.09362       12.04070
H          4.88743       84.66099       10.89672
H          3.66367       84.24364        8.33550
H          3.87159       82.39733        9.93479
H          2.19900       82.62632        9.32591
H          1.95434       81.05241       11.38118
H          1.56777       81.92782       12.87511
N          1.98626       86.50705       10.04215
C          0.81311       87.37696        9.97444
C         -0.02328       87.36230       11.24544
O         -1.04333       88.03713       11.26915
H          2.73774       86.78066       10.68804
H          0.13494       87.06075        9.15287
H          1.14646       88.41139        9.74484
N          0.29953       86.57294       12.30836
C         -0.53935       86.37240       13.48344
C          0.24053       86.64736       14.75557
O          1.29583       86.06302       14.94929
C         -1.00500       84.90275       13.51033
C         -1.93117       84.56589       12.36654
C         -1.54501       83.64292       11.38078
C         -3.20573       85.15464       12.29200
C         -2.41862       83.31439       10.33944
C         -4.08043       84.81914       11.25448
C         -3.68946       83.89569       10.27456
O         -4.52562       83.55642        9.27256
H          1.15673       86.01750       12.26603
H         -1.44241       87.02120       13.45830
H         -1.54952       84.68941       14.45647
H         -0.10592       84.24724       13.48823
H         -0.56967       83.17668       11.41610
H         -3.52933       85.86162       13.04574
H         -2.10953       82.60124        9.58574
H         -5.06310       85.27275       11.21702
H         -5.41791       83.92456        9.19969
N         -0.26579       87.47930       15.70431
C          0.35669       87.72144       17.00137
C         -0.54861       87.17721       18.09522
O         -1.72276       87.51772       18.14897
C          0.67837       89.24018       17.15431
C          1.94942       89.54621       16.31269
C          0.88899       89.64699       18.62923
C          2.34105       91.02131       16.25717
H         -1.17067       87.94151       15.52158
H          1.32243       87.17692       17.09987
H         -0.18930       89.83035       16.78437
H          1.79334       89.20475       15.26714
H          2.80996       88.97579       16.73245
H          1.07973       90.73303       18.72830
H         -0.03013       89.45557       19.22213
H          1.72930       89.08890       19.08027
H          1.52493       91.61440       15.79642
H          2.57682       91.42348       17.26249
H          3.25768       91.12859       15.63891
N         -0.00872       86.37361       19.05712
C         -0.72686       85.86830       20.22019
C         -0.31416       86.66962       21.44314
O          0.43337       87.61919       21.29394
C         -0.41730       84.36822       20.39360
O          0.94779       84.16236       20.66134
H          1.00556       86.18678       19.02143
H         -1.82468       85.99182       20.09527
H         -0.73701       83.80605       19.48541
H         -0.99961       83.94205       21.23608
H          1.37916       83.88428       19.81193
N         -0.77134       86.36690       22.68748
C         -0.38526       87.12059       23.87996
C          1.11857       87.08577       24.11373
O          1.70909       88.13826       24.31002
C         -1.10154       86.56422       25.11274
H         -1.41997       85.57186       22.79205
H         -0.71193       88.17994       23.76896
H         -2.20116       86.63061       24.96966
H         -0.82324       85.50388       25.28925
H         -0.83203       87.16333       26.00954
N          1.79984       85.90408       24.09744
C          3.23350       85.78238       24.36704
C          4.06073       86.69822       23.48338
O          4.83293       87.48917       24.00769
C          3.68089       84.32800       24.17018
H          1.26713       85.04798       23.87812
H          3.42337       86.05389       25.42938
H          4.76126       84.22164       24.40593
H          3.10735       83.65904       24.84638
H          3.50979       84.00001       23.12187
N          3.92055       86.66655       22.13152
C          4.64260       87.55355       21.21941
C          4.38024       89.00774       21.57605
O          5.32496       89.76258       21.75893
C          4.19344       87.29537       19.76662
C          4.58710       85.89853       19.26492
C          4.03222       85.66431       17.89307
O          4.34526       86.39435       16.96795
O          3.17391       84.65018       17.68110
H          3.22930       86.00653       21.74446
H          5.73828       87.36492       21.28348
H          4.66143       88.04939       19.09423
H          3.09120       87.40574       19.70799
H          4.18782       85.11150       19.93703
H          5.69444       85.80575       19.23958
N          3.10753       89.45643       21.71826
C          2.77505       90.81851       22.06235
H          1.67240       90.91432       22.17195
H          3.24996       91.09647       23.02652
H          3.11310       91.50311       21.25771
H          2.34243       88.79299       21.60096
Ca         3.65487       84.61126       14.53957
O          4.01243       81.64415       14.38896
H          3.28810       80.97885       14.28198
H          4.41177       81.72222       13.48640
O          1.28933       83.14133       15.75800
H          0.69583       83.49641       16.46654
H          2.04738       82.73456       16.24806

Ca 1.0



