%chk=holoCaM.loop4.water3.frame270.chk
%nprocshared=20
%mem=10GB
%nosave
#b3lyp/svp scf=(tight,noincore,xqc) Test 
#IOP(5/87=12) Density=Current Pop=(MK,readradii) iop(6/33=2) iop(6/42=6)

holoCaM.loop4.water3.frame270 

   -3  1 
C         28.14739      -22.39431       75.05820
C         28.25570      -22.70900       73.59624
O         28.82587      -21.91215       72.86699
H         28.62099      -21.41346       75.28434
H         27.08687      -22.37138       75.37570
H         28.69043      -23.17497       75.63465
N         27.78295      -23.89342       73.10940
C         28.05313      -24.35855       71.75342
C         26.78062      -24.77632       71.00946
O         26.02184      -25.58109       71.53263
C         29.01361      -25.55843       71.87401
C         29.67543      -25.93551       70.58326
O         30.46070      -27.02712       70.53973
O         29.57827      -25.22417       69.59750
H         27.32158      -24.54417       73.76431
H         28.57779      -23.56415       71.18033
H         28.46214      -26.42773       72.29263
H         29.84123      -25.30897       72.57322
N         26.52668      -24.31060       69.74913
C         25.37100      -24.68727       68.92275
C         25.80279      -25.46836       67.65864
O         24.93265      -25.91492       66.92769
C         24.58889      -23.36648       68.56518
C         23.99705      -22.74543       69.86021
C         23.48121      -23.55372       67.50369
C         23.37925      -21.35559       69.66514
H         27.20455      -23.65362       69.33838
H         24.69615      -25.37215       69.48313
H         25.32052      -22.64980       68.12954
H         24.80321      -22.62657       70.61397
H         23.22725      -23.42815       70.28303
H         22.72287      -24.29003       67.84178
H         22.98010      -22.59680       67.26397
H         23.90741      -23.86553       66.53023
H         22.50119      -21.37617       68.99086
H         23.02837      -20.96921       70.64481
H         24.13181      -20.65148       69.25552
N         27.11283      -25.66984       67.32724
C         27.53224      -26.14361       65.99927
C         28.84363      -26.95629       65.98158
O         29.22870      -27.38830       64.90209
C         27.63321      -24.93750       65.02666
C         28.59146      -23.86603       65.47760
O         29.08837      -23.89165       66.72702
O         28.89473      -22.96157       64.71841
H         27.81557      -25.28094       67.95092
H         26.75515      -26.82298       65.58479
H         26.63675      -24.46595       64.88545
H         27.96133      -25.31970       64.03504
N         29.55778      -27.25073       67.10413
C         30.73237      -28.11972       67.12442
C         32.02088      -27.59944       66.48723
O         32.98831      -28.34711       66.52453
H         29.19797      -26.95054       68.01331
H         30.46077      -29.08794       66.65132
H         30.98226      -28.33202       68.18628
N         32.14978      -26.37240       65.90059
C         33.41148      -25.91333       65.28335
C         34.56202      -25.65714       66.27845
O         35.64026      -25.30015       65.82310
C         33.16418      -24.65250       64.41493
C         32.65177      -23.48104       65.19622
O         32.54172      -23.57370       66.52832
O         32.25959      -22.48100       64.61849
H         31.31587      -25.77057       65.84238
H         33.74746      -26.70076       64.57213
H         32.39468      -24.91632       63.65667
H         34.08855      -24.35656       63.87304
N         34.43043      -25.83239       67.62743
C         35.52754      -25.66431       68.57784
C         35.79008      -24.23165       69.02287
O         36.67151      -24.04877       69.85033
H         33.54668      -26.19350       68.00113
H         36.45381      -26.12582       68.16982
H         35.26837      -26.22329       69.50190
N         35.08102      -23.17237       68.54005
C         35.30490      -21.77766       68.92481
C         34.00588      -21.16184       69.45701
O         32.98065      -21.82283       69.37924
C         35.83050      -21.03008       67.67782
C         37.10865      -21.71076       67.13536
C         37.60996      -21.07894       65.86486
N         37.70225      -21.80611       64.72371
O         37.95265      -19.90673       65.86615
H         34.37525      -23.34655       67.82701
H         36.06704      -21.71572       69.73125
H         36.04388      -19.96796       67.92496
H         35.04915      -21.05822       66.88464
H         36.89848      -22.77982       66.92006
H         37.90824      -21.67095       67.90531
H         37.42376      -22.79899       64.69961
H         38.05826      -21.37887       63.85620
N         33.96095      -19.90838       70.01523
C         32.71174      -19.30876       70.50665
C         32.38369      -18.08508       69.66529
O         33.12706      -17.11348       69.68938
C         32.77040      -18.93855       72.02148
C         31.40123      -18.41576       72.50927
C         33.17635      -20.13127       72.90022
H         34.83100      -19.35862       70.08258
H         31.88231      -20.03687       70.39468
H         33.53055      -18.14110       72.17256
H         31.09001      -17.51420       71.94537
H         30.61721      -19.19515       72.38598
H         31.44603      -18.13487       73.58315
H         33.21951      -19.81863       73.96673
H         32.44556      -20.95799       72.82105
H         34.17988      -20.50693       72.61540
N         31.27551      -18.08772       68.87356
C         30.88164      -16.97583       68.00588
C         30.38048      -15.79876       68.84149
O         30.20474      -15.95026       70.04271
C         29.72762      -17.49174       67.09868
C         29.34152      -16.72267       65.85820
N         28.28282      -17.14484       65.12862
O         29.98691      -15.76319       65.47237
H         30.71049      -18.95019       68.85450
H         31.75987      -16.70275       67.38061
H         28.82803      -17.64389       67.73605
H         30.02741      -18.47355       66.70697
H         27.73607      -17.96740       65.42469
H         28.00544      -16.64959       64.26869
N         30.06048      -14.60921       68.25971
C         29.31813      -13.56473       68.94905
C         27.92500      -14.08180       69.28873
O         27.44098      -13.82038       70.37781
C         29.14578      -12.32055       68.05023
C         28.45508      -11.23397       68.83973
C         29.14469      -10.56663       69.86610
C         27.10863      -10.91887       68.59681
C         28.49707       -9.60143       70.64023
C         26.45771       -9.96391       69.38378
C         27.15057       -9.30297       70.40962
O         26.53264       -8.38850       71.18353
H         30.30167      -14.44908       67.27845
H         29.87096      -13.25802       69.86525
H         28.54394      -12.60874       67.15913
H         30.12337      -11.93941       67.68296
H         30.18374      -10.79745       70.06778
H         26.55470      -11.43488       67.82220
H         29.03998       -9.09496       71.42843
H         25.41295       -9.74666       69.20235
H         25.59654       -8.16970       71.07307
N         27.20984      -14.79155       68.36468
C         25.85523      -15.29792       68.59156
C         25.78458      -16.37725       69.68154
O         24.68111      -16.80265       69.99424
C         25.26286      -15.86590       67.27627
C         25.16656      -14.80592       66.16173
C         24.55411      -15.38509       64.91828
O         25.18218      -15.39682       63.87135
O         23.30168      -15.87960       64.94753
H         27.65142      -14.96109       67.44977
H         25.21501      -14.44416       68.90692
H         24.23501      -16.24147       67.47810
H         25.88400      -16.72069       66.92694
H         26.17315      -14.41107       65.91049
H         24.53758      -13.95664       66.50416
N         26.89864      -16.86222       70.30623
C         26.88514      -17.87350       71.36216
C         27.37298      -17.30776       72.69422
O         27.37419      -18.04948       73.66716
C         27.79136      -19.04572       70.93720
C         27.22811      -19.79641       69.72337
C         28.17182      -20.83893       69.19512
O         27.85126      -21.49937       68.22165
O         29.37793      -21.03678       69.75668
H         27.81978      -16.51215       70.02849
H         25.85395      -18.24962       71.54422
H         27.89678      -19.77182       71.77061
H         28.79900      -18.63653       70.70026
H         27.02182      -19.08550       68.89735
H         26.28055      -20.28912       70.02498
N         27.78139      -16.01347       72.82835
C         28.22015      -15.42259       74.07438
H         29.26104      -15.05484       73.95673
H         27.56435      -14.55873       74.31563
H         28.18645      -16.13846       74.92036
H         27.78748      -15.39354       72.01925
Ca        30.79135      -22.74603       67.55597
O         32.70226      -24.59887       69.83987
H         33.32645      -24.48597       70.59955
H         32.41670      -25.54194       69.89730
O         31.10112      -22.90434       71.25323
H         31.54353      -23.28828       72.05021
H         30.95509      -21.95581       71.48365
O         30.08135      -20.71124       65.96088
H         29.85020      -20.45406       65.03555
H         31.04773      -20.50901       66.04783

Ca 1.0



