%chk=holoCaM.loop1.water2.frame300.chk
%nprocshared=20
%mem=10GB
%nosave
#b3lyp/svp scf=(tight,noincore,xqc) Test 
#IOP(5/87=12) Density=Current Pop=(MK,readradii) iop(6/33=2) iop(6/42=6)

holoCaM.loop1.water2.frame300 

   0  1 
C         29.41356       32.91233       41.36280
C         28.61746       32.34886       40.22449
O         29.13363       32.22719       39.12513
H         30.44626       33.15926       41.04057
H         28.92217       33.84488       41.71795
H         29.45062       32.18437       42.19930
N         27.32093       32.00241       40.42655
C         26.41897       31.56411       39.36468
C         26.28935       32.68039       38.33054
O         25.86884       33.77162       38.68834
C         25.07693       31.17976       40.02518
C         23.90758       30.97196       39.11744
O         23.85179       30.03670       38.16058
O         22.92743       31.68121       39.27039
H         26.95367       32.09777       41.38783
H         26.82388       30.65825       38.87526
H         24.78127       32.00052       40.71554
H         25.22847       30.26496       40.64070
N         26.65961       32.46996       37.02812
C         26.63598       33.50319       35.98954
C         25.58762       33.24172       34.91609
O         25.39378       34.12492       34.09095
C         27.99531       33.56225       35.25225
C         29.22305       33.98916       36.05917
C         29.13059       35.44939       36.52714
C         30.45019       35.98389       37.11167
N         31.51685       36.05308       36.10601
H         26.98086       31.53089       36.75808
H         26.38249       34.48843       36.43657
H         27.92259       34.26761       34.39429
H         28.19733       32.55180       34.82989
H         30.07468       33.88350       35.35778
H         29.40226       33.30904       36.91355
H         28.33677       35.52600       37.30046
H         28.84828       36.10289       35.67277
H         30.77658       35.35917       37.97163
H         30.25781       37.01358       37.48609
H         31.82173       35.09938       35.81054
H         31.19585       36.59759       35.27192
H         32.34568       36.53743       36.51913
N         24.89439       32.07203       34.83161
C         23.88042       31.81558       33.80932
C         22.48859       31.65626       34.42486
O         21.54342       31.41580       33.68740
C         24.32255       30.69221       32.83104
C         24.72524       29.35442       33.39102
O         24.79378       29.13593       34.71105
O         25.06479       28.46894       32.62324
H         25.07671       31.33649       35.52424
H         23.76640       32.70050       33.14464
H         25.21293       31.06642       32.27697
H         23.51215       30.53869       32.08646
N         22.26690       31.93863       35.74280
C         20.94900       32.08746       36.34194
C         20.16402       30.80834       36.48446
O         19.00728       30.76637       36.09249
H         23.05909       32.18989       36.35047
H         20.36630       32.85539       35.78812
H         21.09331       32.47154       37.37509
N         20.72654       29.74098       37.10370
C         20.02717       28.51836       37.47437
C         20.22980       28.18773       38.96520
O         19.76482       27.14128       39.39504
C         20.45115       27.37453       36.53160
C         21.93487       27.20998       36.40016
O         22.46851       27.32086       35.30818
O         22.68561       26.94791       37.47654
H         21.72165       29.79846       37.33163
H         18.92962       28.62597       37.32699
H         20.04522       27.59968       35.52031
H         19.99009       26.42157       36.86948
N         20.84235       29.05683       39.82955
C         20.95624       28.83507       41.26680
C         21.96795       27.78563       41.69849
O         22.06479       27.56619       42.89750
H         21.15182       29.97386       39.48988
H         19.95198       28.58472       41.67297
H         21.27796       29.78620       41.74627
N         22.76190       27.11152       40.81702
C         23.74508       26.10060       41.22048
C         25.14867       26.47063       40.75220
O         25.31185       27.45578       40.04521
C         23.33368       24.71117       40.66997
C         22.05247       24.18355       41.33218
O         23.20107       24.73902       39.27114
H         22.66906       27.31762       39.81827
H         23.79787       26.02797       42.32867
H         24.12223       23.96905       40.91476
H         22.29207       25.07209       39.05016
H         21.80819       23.18230       40.91729
H         22.20598       24.08428       42.42717
H         21.19544       24.86507       41.14726
N         26.22117       25.71420       41.14608
C         27.60098       25.97847       40.74733
C         28.16857       24.77465       39.99851
O         28.41302       23.74122       40.60544
C         28.45972       26.38040       41.99763
C         28.03332       27.79846       42.47288
C         29.97466       26.34201       41.71395
C         28.78663       28.31589       43.70261
H         26.05691       24.91376       41.77498
H         27.63846       26.83117       40.04949
H         28.27720       25.63895       42.80705
H         26.95089       27.78845       42.71938
H         28.19351       28.52931       41.64792
H         30.29561       25.32608       41.41503
H         30.24603       27.06886       40.93005
H         30.56421       26.56010       42.62601
H         28.39086       29.31508       43.98183
H         28.65641       27.62324       44.55933
H         29.86800       28.45056       43.49286
N         28.43699       24.87213       38.66132
C         29.19031       23.87030       37.89673
C         30.66203       23.92166       38.27901
O         31.03460       24.73602       39.09985
C         29.07085       24.12785       36.36734
C         27.69494       23.73174       35.83113
O         29.40925       25.45830       36.04963
H         28.13275       25.72922       38.18013
H         28.79894       22.85102       38.10840
H         29.76512       23.46892       35.80772
H         28.58707       26.01288       36.01774
H         27.66385       23.88613       34.73183
H         27.50177       22.65629       36.03044
H         26.91303       24.33273       36.31993
N         31.56680       23.08404       37.69922
C         33.00615       23.14373       37.95982
C         33.59041       24.48165       37.51785
O         34.26308       25.12107       38.31386
C         33.75064       21.97993       37.26020
C         33.30882       20.62093       37.82045
O         33.53543       22.01808       35.87276
H         31.21609       22.37967       37.03512
H         33.18981       23.02421       39.05219
H         34.83811       22.10457       37.47684
H         34.23295       21.44687       35.45739
H         32.23334       20.43069       37.62536
H         33.89678       19.80910       37.34434
H         33.48461       20.58383       38.91670
N         33.34883       24.97318       36.26720
C         33.85926       26.25522       35.77055
C         33.56460       27.38886       36.74812
O         34.47439       28.12671       37.09939
C         33.32466       26.54586       34.33339
C         31.79434       26.67886       34.23324
C         31.28435       26.86010       32.79928
C         29.74737       26.96927       32.79566
N         29.22694       27.13944       31.44010
H         32.74787       24.41165       35.64769
H         34.96573       26.18385       35.67767
H         33.64848       25.70968       33.67575
H         33.78975       27.48035       33.94963
H         31.47142       27.55853       34.81720
H         31.32797       25.76191       34.63363
H         31.59017       25.98552       32.18443
H         31.72377       27.78172       32.36035
H         29.43298       27.83722       33.41809
H         29.30608       26.04815       33.23918
H         29.48435       26.31546       30.84981
H         28.18408       27.21166       31.48217
H         29.60930       28.01500       31.01520
N         32.32144       27.54087       37.27213
C         31.95510       28.56653       38.24738
C         32.75886       28.41430       39.53365
O         33.35246       29.38912       39.97352
C         30.42510       28.51707       38.47449
C         29.72163       28.98704       37.18210
C         28.23570       28.86211       37.18278
O         27.57294       28.37307       38.24244
O         27.61853       29.18417       36.18140
H         31.60008       26.86539       36.97846
H         32.17701       29.57883       37.84095
H         30.12516       29.19344       39.30540
H         30.11786       27.47913       38.72816
H         30.06629       28.38697       36.32331
H         29.98522       30.05151       36.99793
N         32.86926       27.21657       40.16465
C         33.65745       27.02573       41.36323
H         34.71307       27.31781       41.17682
H         33.24054       27.63098       42.19458
H         33.64012       25.95393       41.65973
H         32.40932       26.40101       39.76291
Ca        24.97351       28.61751       36.88214
O         24.56958       25.13353       36.68799
H         24.42929       24.40191       36.03648
H         24.98043       24.69534       37.47492
O         26.39658       26.08201       34.48154
H         25.89286       25.56956       33.80127
H         26.01458       26.98918       34.45268

Ca 1.0



