%chk=holoCaM-CaMKII.loop1.water2.frame381.chk
%nprocshared=20
%mem=10GB
%nosave
#b3lyp/svp scf=(tight,noincore,xqc) Test 
#IOP(5/87=12) Density=Current Pop=(MK,readradii) iop(6/33=2) iop(6/42=6)

holoCaM-CaMKII.loop1.water2.frame381 

   0  1 
C         54.41328       83.72181       75.77751
C         54.02156       84.63872       76.89927
O         53.69686       85.78206       76.63696
H         55.44770       83.35375       75.94160
H         53.71880       82.85556       75.74313
H         54.37256       84.25026       74.80089
N         54.00284       84.17017       78.17777
C         53.62308       84.92992       79.37526
C         54.64533       86.01593       79.74217
O         55.37294       85.84939       80.71144
C         53.38353       83.90640       80.51944
C         53.04350       84.46408       81.88208
O         51.97922       85.26669       82.09947
O         53.72915       84.12854       82.83362
H         54.23085       83.16922       78.29369
H         52.65478       85.41300       79.20402
H         54.28940       83.26948       80.62980
H         52.54579       83.24187       80.21086
N         54.72202       87.18607       79.03565
C         55.66032       88.26254       79.35706
C         55.36895       88.95553       80.68187
O         56.25953       89.66047       81.13851
C         55.63279       89.38477       78.28291
C         56.47657       89.14688       77.02526
C         56.09166       87.95529       76.14997
C         56.98317       87.95833       74.89472
N         56.69123       86.82627       74.02040
H         54.08529       87.33211       78.24591
H         56.68771       87.83862       79.41708
H         56.09371       90.30419       78.70951
H         54.58036       89.64704       78.03281
H         57.54006       89.03680       77.33292
H         56.39133       90.07183       76.41184
H         55.02655       88.03933       75.84484
H         56.24182       87.01116       76.71632
H         58.05498       87.91840       75.19432
H         56.81856       88.90493       74.33082
H         55.68995       86.85051       73.72097
H         57.30098       86.89152       73.17264
H         56.89682       85.92979       74.51740
N         54.15780       88.90420       81.31022
C         53.87059       89.71036       82.50123
C         53.70612       88.86792       83.76043
O         53.38364       89.42524       84.80056
C         52.74593       90.73739       82.22220
C         51.38916       90.18498       81.90676
O         51.16072       88.86390       81.90371
O         50.47482       90.95289       81.65166
H         53.40790       88.31772       80.91674
H         54.73929       90.35818       82.74737
H         53.06609       91.36226       81.35809
H         52.64498       91.41008       83.10166
N         54.09602       87.55914       83.78256
C         54.28552       86.80185       85.01164
C         53.03329       86.33985       85.71969
O         53.17949       85.66769       86.73133
H         54.43708       87.11773       82.91763
H         54.91635       87.39526       85.70846
H         54.85312       85.87988       84.75913
N         51.77931       86.60791       85.26197
C         50.57745       86.07888       85.91143
C         50.42756       84.55195       85.78793
O         49.45023       84.03217       86.30978
C         49.31139       86.83680       85.43651
C         49.15522       86.96995       83.94706
O         49.11026       85.89246       83.15334
O         49.06419       88.07942       83.44844
H         51.67530       87.21083       84.43503
H         50.63500       86.29290       87.00235
H         49.36140       87.86755       85.85263
H         48.40684       86.35656       85.86783
N         51.35657       83.75639       85.17418
C         51.25998       82.30264       85.11526
C         50.19966       81.79007       84.16375
O         50.07584       80.58019       84.04160
H         52.20380       84.16998       84.77575
H         51.09724       81.89676       86.13731
H         52.22664       81.89827       84.74198
N         49.42384       82.63720       83.43327
C         48.44954       82.20370       82.44283
C         48.82231       82.77330       81.08023
O         49.67712       83.64362       80.99519
C         47.02159       82.62358       82.87910
C         46.56692       81.86812       84.14021
O         46.93764       84.01452       83.07686
H         49.54387       83.64305       83.55291
H         48.47238       81.09715       82.34081
H         46.29995       82.35428       82.07863
H         47.29805       84.22733       83.97876
H         45.54196       82.18983       84.42376
H         46.55209       80.77550       83.94438
H         47.24742       82.06857       84.99559
N         48.24892       82.26617       79.95374
C         48.57328       82.71501       78.60280
C         47.30072       83.20023       77.94288
O         46.34426       82.44204       77.85708
C         49.25645       81.56505       77.79455
C         50.65275       81.26524       78.40710
C         49.39460       81.93817       76.30094
C         51.38276       80.08143       77.76663
H         47.56771       81.49793       80.05419
H         49.29296       83.55877       78.62341
H         48.61903       80.65515       77.85711
H         50.53799       81.02929       79.48589
H         51.29878       82.16727       78.31717
H         49.84154       81.11292       75.71299
H         48.39776       82.10938       75.84874
H         50.01247       82.85242       76.17423
H         51.61187       80.26424       76.69768
H         52.35289       79.92623       78.28460
H         50.77538       79.15746       77.86371
N         47.24898       84.45081       77.39915
C         46.09807       84.93284       76.64600
C         46.29169       84.64296       75.17205
O         47.36074       84.21377       74.76996
C         45.87584       86.45405       76.86209
C         45.60064       86.81378       78.32490
O         46.96234       87.19622       76.36279
H         48.10577       85.02064       77.40548
H         45.18663       84.38418       76.97214
H         44.97682       86.76881       76.29040
H         47.68234       87.20226       77.04418
H         45.43219       87.90907       78.41223
H         44.70035       86.28097       78.69341
H         46.47147       86.53982       78.95139
N         45.26451       84.83591       74.30487
C         45.38009       84.62142       72.86603
C         46.34226       85.62659       72.25612
O         47.22275       85.21428       71.51440
C         43.99439       84.68984       72.18542
C         43.12842       83.49257       72.63916
O         43.38215       85.92777       72.46666
H         44.35931       85.14139       74.69291
H         45.77089       83.59661       72.66494
H         44.13358       84.59400       71.08538
H         42.39700       85.81273       72.45459
H         43.63831       82.53560       72.39175
H         42.93927       83.51895       73.73232
H         42.15318       83.49982       72.10920
N         46.26028       86.95685       72.55925
C         47.18068       87.96213       72.02548
C         48.63427       87.56002       72.21593
O         49.38411       87.61552       71.25067
C         46.89302       89.38335       72.57358
C         46.96437       89.56208       74.10266
C         46.73248       91.03528       74.47466
C         46.69935       91.24657       75.99485
N         46.53334       92.66503       76.31742
H         45.52792       87.25733       73.21845
H         47.01595       88.03405       70.92675
H         45.87266       89.67906       72.24439
H         47.61707       90.08070       72.09633
H         47.95982       89.25923       74.48775
H         46.18136       88.94048       74.58365
H         45.76444       91.38111       74.05005
H         47.55159       91.64748       74.03683
H         47.64455       90.87748       76.45064
H         45.85173       90.66914       76.42764
H         45.65175       93.03467       75.89248
H         46.48195       92.77995       77.35536
H         47.35042       93.21114       75.95862
N         49.08171       87.05902       73.39942
C         50.44212       86.55717       73.58116
C         50.73086       85.45014       72.58179
O         51.65707       85.59049       71.79491
C         50.63004       86.02307       75.00974
C         50.57832       87.14603       76.05809
C         50.65081       86.60377       77.45475
O         50.63895       87.44541       78.50026
O         50.73209       85.40324       77.65971
H         48.41082       86.98329       74.17742
H         51.17189       87.38197       73.41536
H         51.61803       85.52034       75.09134
H         49.84004       85.26995       75.22263
H         49.64353       87.73025       75.96564
H         51.43439       87.83623       75.89368
N         49.96380       84.32788       72.54074
C         50.18195       83.27533       71.57481
H         51.19692       82.84461       71.70240
H         49.42890       82.47104       71.71802
H         50.07305       83.68101       70.54629
H         49.18715       84.22083       73.20290
Ca        50.98017       86.50599       80.51094
O         48.28129       88.90379       79.53102
H         47.56264       89.49356       79.19114
H         49.01593       89.52146       79.77311
O         47.07894       86.64715       81.39394
H         46.45535       85.87967       81.35491
H         46.50403       87.42445       81.60463

Ca 1.0



