%chk=holoCaM-CaMKII.loop1.water2.frame343.chk
%nprocshared=20
%mem=10GB
%nosave
#b3lyp/svp scf=(tight,noincore,xqc) Test 
#IOP(5/87=12) Density=Current Pop=(MK,readradii) iop(6/33=2) iop(6/42=6)

holoCaM-CaMKII.loop1.water2.frame343 

   0  1 
C         22.61963       74.14335       66.34503
C         23.11576       75.45373       66.89135
O         22.45832       76.01693       67.74886
H         21.63639       74.29097       65.85251
H         23.32272       73.71906       65.59588
H         22.51271       73.41032       67.17172
N         24.29514       75.97087       66.45008
C         24.92868       77.21228       66.91141
C         24.28863       78.42709       66.19974
O         24.95526       79.07292       65.40451
C         26.44271       77.03460       66.59098
C         27.46327       78.00997       67.09282
O         27.18951       79.07287       67.85345
O         28.62578       77.83269       66.76988
H         24.81843       75.38956       65.77527
H         24.84324       77.29354       68.01740
H         26.55471       76.97507       65.48635
H         26.76701       76.06146       67.01589
N         22.97110       78.75081       66.39191
C         22.23435       79.76114       65.61491
C         22.59157       81.21482       65.92619
O         22.08741       82.08556       65.23019
C         20.70728       79.56925       65.82600
C         20.16616       78.23740       65.26208
C         20.15100       78.22785       63.72284
C         19.58125       76.91830       63.16590
N         19.50215       76.97063       61.70524
H         22.43328       78.19301       67.06068
H         22.46644       79.60909       64.54260
H         20.12979       80.39023       65.34669
H         20.50108       79.61702       66.91880
H         19.11497       78.12278       65.60667
H         20.74788       77.37729       65.65692
H         21.17319       78.35557       63.31439
H         19.51888       79.07350       63.37222
H         18.56287       76.74346       63.57791
H         20.23662       76.07253       63.47235
H         18.85148       77.73533       61.41052
H         20.44939       77.14008       61.29509
H         19.13477       76.06014       61.34649
N         23.43413       81.56239       66.93317
C         23.82986       82.93926       67.24161
C         25.32026       83.17917       66.97322
O         25.76141       84.30898       67.13155
C         23.37430       83.32597       68.67508
C         23.72641       82.29775       69.71752
O         22.84141       81.70186       70.31015
O         25.00243       81.92859       69.88698
H         23.81865       80.81205       67.50576
H         23.32181       83.65479       66.55801
H         22.26592       83.41834       68.66175
H         23.78619       84.32111       68.95081
N         26.13049       82.20508       66.46459
C         27.48366       82.44309       65.98467
C         28.45803       82.84552       67.06223
O         29.10685       83.87339       66.93246
H         25.76088       81.25868       66.31781
H         27.46127       83.20480       65.17515
H         27.86743       81.49768       65.53961
N         28.65145       82.02945       68.12893
C         29.67531       82.21736       69.14752
C         30.64571       81.03079       69.17066
O         31.48648       80.97544       70.05740
C         29.01189       82.49553       70.51485
C         28.12527       81.41933       71.08102
O         27.95668       80.35551       70.51112
O         27.49730       81.64798       72.24826
H         28.05518       81.20164       68.20270
H         30.28750       83.12030       68.92923
H         28.39399       83.41339       70.40581
H         29.80636       82.71063       71.26146
N         30.63847       80.08412       68.18096
C         31.59048       78.98688       68.09537
C         31.33457       77.84288       69.05474
O         32.08151       76.87675       68.98055
H         29.99485       80.18317       67.38420
H         32.62526       79.37695       68.21187
H         31.51653       78.54527       67.07742
N         30.31597       77.84939       69.96270
C         30.04397       76.73100       70.86410
C         28.61159       76.23322       70.73437
O         27.77746       76.89589       70.13121
C         30.32700       77.15379       72.33154
C         31.82830       77.30876       72.57044
O         29.70411       78.37382       72.64872
H         29.71244       78.67689       70.03384
H         30.69044       75.86131       70.61367
H         29.97619       76.36601       73.03507
H         28.76497       78.32155       72.34214
H         32.25959       78.08842       71.90837
H         32.01028       77.59798       73.62759
H         32.34328       76.34251       72.38135
N         28.27774       75.02835       71.28401
C         26.93201       74.46471       71.29637
C         26.59588       74.11865       72.73930
O         27.23982       73.24548       73.30681
C         26.85804       73.22464       70.35354
C         27.11725       73.67887       68.89130
C         25.49439       72.51200       70.46665
C         27.19104       72.53901       67.87510
H         29.02936       74.46780       71.71625
H         26.20046       75.20926       70.92154
H         27.64852       72.50339       70.65958
H         28.08951       74.21253       68.83682
H         26.31547       74.38323       68.57964
H         25.47017       71.59427       69.84597
H         25.30674       72.17862       71.50728
H         24.67149       73.18385       70.14738
H         26.22949       71.99387       67.79837
H         27.41310       72.96132       66.87176
H         28.00187       71.83232       68.15007
N         25.62902       74.80234       73.41344
C         25.31840       74.55012       74.82023
C         24.52370       73.26056       74.97323
O         24.18207       72.63889       73.97833
C         24.51606       75.73442       75.43551
C         25.26181       77.06365       75.32303
O         23.26938       75.85690       74.80877
H         25.14451       75.56642       72.92533
H         26.27121       74.47721       75.39071
H         24.37188       75.52767       76.52066
H         22.66212       76.30372       75.45489
H         25.38376       77.34650       74.25989
H         24.67693       77.86578       75.82118
H         26.25797       76.99443       75.80704
N         24.13762       72.83445       76.20885
C         23.20846       71.72510       76.41215
C         21.89717       72.02306       75.70450
O         21.40882       71.18361       74.96121
C         22.92582       71.46931       77.92237
C         24.16232       70.96557       78.68058
O         22.36251       72.59391       78.55796
H         24.47046       73.36094       77.02771
H         23.63815       70.78654       75.99502
H         22.17752       70.64863       77.99157
H         23.08964       73.22834       78.78830
H         24.53150       70.02466       78.22048
H         24.97878       71.71646       78.66877
H         23.88948       70.75471       79.73692
N         21.28357       73.22340       75.89418
C         19.98584       73.57679       75.33668
C         19.96532       73.47966       73.82210
O         19.08418       72.82223       73.28633
C         19.59851       74.99884       75.81205
C         18.13521       75.39765       75.53436
C         17.08655       74.41257       76.09536
C         17.25202       74.11856       77.59933
N         16.25680       73.14913       78.05343
H         21.75806       73.91541       76.49452
H         19.25357       72.85727       75.75481
H         20.27759       75.75315       75.35893
H         19.75357       75.06011       76.90988
H         17.97373       75.49373       74.43911
H         17.96942       76.39912       75.98925
H         17.14459       73.45877       75.53159
H         16.07552       74.83629       75.91245
H         17.15383       75.06079       78.18171
H         18.25583       73.68779       77.80033
H         16.41143       72.95077       79.06854
H         15.29288       73.53003       77.92014
H         16.36252       72.25477       77.52014
N         20.92245       74.09311       73.07112
C         20.95341       74.05356       71.61209
C         20.95488       72.61899       71.11170
O         20.04266       72.25868       70.38023
C         22.16354       74.84428       71.05286
C         22.04978       76.35018       71.36572
C         23.12831       77.16171       70.70204
O         22.83065       78.03714       69.90533
O         24.42225       76.95810       71.00047
H         21.66689       74.59408       73.56712
H         20.03226       74.54198       71.22131
H         22.17053       74.72084       69.94942
H         23.11758       74.43839       71.45544
H         22.10188       76.52686       72.45887
H         21.06519       76.71473       71.00096
N         21.91870       71.73643       71.49255
C         21.92554       70.34276       71.08996
H         21.07442       70.08691       70.42323
H         22.87010       70.11391       70.55546
H         21.85653       69.70045       71.99352
H         22.66993       72.05388       72.11731
Ca        25.47412       79.95745       68.93401
O         23.88550       80.01215       73.02984
H         24.00877       80.39334       73.93521
H         24.10946       80.75777       72.41925
O         26.86839       79.26069       73.65237
H         26.47799       79.97775       74.20977
H         27.46376       78.76646       74.27013

Ca 1.0



