%chk=holoCaM-CaMKII.loop4.water2.frame221.chk
%nprocshared=20
%mem=10GB
%nosave
#b3lyp/svp scf=(tight,noincore,xqc) Test 
#IOP(5/87=12) Density=Current Pop=(MK,readradii) iop(6/33=2) iop(6/42=6)

holoCaM-CaMKII.loop4.water2.frame221 

   -3  1 
C         22.50263       62.12289       43.34533
C         23.46193       62.15894       42.19820
O         24.51835       61.54941       42.27794
H         21.54491       61.67161       43.00857
H         22.91110       61.51493       44.17975
H         22.31577       63.15623       43.70291
N         23.13578       62.84204       41.06936
C         23.98823       62.86378       39.89290
C         25.29695       63.59635       40.16139
O         25.25729       64.68602       40.71476
C         23.22923       63.47140       38.69241
C         23.99444       63.17703       37.44585
O         24.46628       61.92881       37.29559
O         24.25042       64.04739       36.63583
H         22.21724       63.31165       41.02972
H         24.19496       61.79958       39.63676
H         23.03114       64.55992       38.81194
H         22.25718       62.94213       38.59926
N         26.49322       63.06311       39.76433
C         27.79172       63.66782       40.06450
C         28.41048       64.27930       38.80074
O         28.54566       65.49498       38.77008
C         28.70786       62.62416       40.79057
C         28.03355       62.16627       42.11580
C         30.11725       63.18612       41.04543
C         28.79813       61.09354       42.89710
H         26.48026       62.18656       39.22778
H         27.64826       64.51828       40.76889
H         28.83111       61.73760       40.13747
H         27.04104       61.73325       41.87872
H         27.88111       63.04284       42.78233
H         30.59813       63.47846       40.08908
H         30.07741       64.06569       41.71998
H         30.77466       62.41129       41.49124
H         28.95593       60.19213       42.27411
H         29.77682       61.46885       43.25665
H         28.20642       60.80080       43.79122
N         28.83826       63.52965       37.74024
C         29.46344       64.12969       36.55044
C         28.52309       65.09872       35.81322
O         28.92914       66.23766       35.62684
C         30.14669       63.08806       35.60572
C         29.29044       61.97345       35.09072
O         28.05354       61.86411       35.55457
O         29.73189       61.14374       34.31320
H         28.76317       62.50753       37.80899
H         30.32873       64.74025       36.89700
H         30.98460       62.60871       36.15636
H         30.57459       63.63783       34.73967
N         27.25633       64.76192       35.41650
C         26.33307       65.70690       34.79150
C         25.71545       65.18884       33.50535
O         25.80953       65.86727       32.49220
H         26.88618       63.83525       35.64478
H         26.81657       66.68940       34.59857
H         25.50035       65.89617       35.49787
N         25.01782       64.01532       33.48882
C         24.26667       63.51756       32.33667
C         22.79125       63.28049       32.69499
O         22.08744       62.65805       31.91155
C         24.96478       62.26889       31.74102
C         25.03860       61.04526       32.60815
O         25.61883       60.05321       32.19963
O         24.46503       61.01078       33.81491
H         24.99745       63.44698       34.34497
H         24.27915       64.25837       31.50647
H         26.00379       62.56215       31.47637
H         24.44444       61.97814       30.80272
N         22.23893       63.80318       33.83498
C         20.83958       63.64275       34.21589
C         20.47449       62.26126       34.74076
O         19.31361       62.07866       35.08253
H         22.80580       64.41741       34.43457
H         20.18785       63.91756       33.35669
H         20.61629       64.35572       35.03958
N         21.38096       61.24513       34.83802
C         21.05672       59.89333       35.29907
C         21.97400       59.44114       36.42788
O         22.88972       60.15828       36.77496
C         21.20321       58.90991       34.12544
C         20.28005       59.27033       32.95500
C         20.36525       58.23580       31.86512
N         21.53167       57.99670       31.22108
O         19.36500       57.60487       31.55825
H         22.33871       61.42137       34.53445
H         20.01003       59.85337       35.67232
H         20.94421       57.88718       34.47276
H         22.26049       58.90668       33.78026
H         20.55523       60.26171       32.53515
H         19.23352       59.32531       33.32798
H         22.38652       58.52043       31.45857
H         21.57975       57.28320       30.47892
N         21.78129       58.24820       37.05468
C         22.62155       57.72980       38.13723
C         23.09501       56.32159       37.78061
O         22.25180       55.48786       37.47463
C         21.79327       57.71953       39.45629
C         22.54768       57.05119       40.61905
C         21.42339       59.15451       39.87592
H         20.96324       57.68402       36.77779
H         23.50868       58.37774       38.31828
H         20.85667       57.14375       39.28798
H         22.78109       55.99306       40.38394
H         23.48870       57.59218       40.84144
H         21.91772       57.04961       41.53401
H         22.34041       59.75339       40.07331
H         20.83157       59.66325       39.08787
H         20.81107       59.13896       40.80293
N         24.41311       55.96004       37.88388
C         24.88571       54.58300       37.70156
C         25.26820       53.99397       39.05211
O         25.05235       54.65257       40.05419
C         26.02410       54.46084       36.64866
C         27.42645       54.78934       37.11879
N         27.79566       56.04227       37.44485
O         28.25672       53.89330       37.17538
H         25.08743       56.66269       38.21052
H         24.05582       53.95994       37.30403
H         25.77215       55.03418       35.73213
H         26.05278       53.39164       36.34468
H         27.13154       56.81821       37.37456
H         28.76352       56.23570       37.74570
N         25.81976       52.75571       39.16843
C         26.16506       52.14426       40.45282
C         27.17890       52.97227       41.24183
O         26.91115       53.27977       42.39491
C         26.72281       50.72612       40.22003
C         27.01028       50.00490       41.51571
C         25.96668       49.67641       42.39936
C         28.32743       49.65068       41.84850
C         26.23890       49.00223       43.59371
C         28.59754       48.98100       43.04477
C         27.55307       48.65230       43.92093
O         27.79996       48.00122       45.07536
H         25.98630       52.21469       38.30638
H         25.23309       52.05050       41.05468
H         27.64702       50.80758       39.60688
H         25.99015       50.12272       39.64097
H         24.94211       49.93495       42.16227
H         29.14687       49.89727       41.18493
H         25.42702       48.74987       44.26464
H         29.61879       48.71750       43.28815
H         28.69433       47.73851       45.33600
N         28.36905       53.35280       40.68806
C         29.41251       54.09281       41.41435
C         28.97932       55.47719       41.90881
O         29.76716       56.11188       42.59730
C         30.68032       54.23208       40.53990
C         31.34532       52.86730       40.27317
C         32.57314       52.96476       39.40683
O         33.26748       51.84668       39.12292
O         32.94924       54.03480       38.95321
H         28.54674       53.07423       39.71272
H         29.68669       53.50870       42.32129
H         31.43130       54.86147       41.06793
H         30.41216       54.73547       39.58418
H         30.63496       52.17593       39.77627
H         31.64349       52.42249       41.24792
N         27.74294       55.98695       41.65834
C         27.23932       57.23719       42.21231
C         26.24283       56.90072       43.31207
O         26.39482       57.40288       44.41650
C         26.62409       58.10443       41.09384
C         27.65510       58.38821       39.99006
C         27.10273       59.22460       38.87182
O         27.78334       60.29896       38.44659
O         26.07837       58.90454       38.29494
H         27.09284       55.45263       41.07923
H         28.05703       57.83176       42.67759
H         26.25680       59.06193       41.52409
H         25.76659       57.56393       40.64086
H         27.97976       57.42238       39.56981
H         28.55325       58.88840       40.40710
N         25.25482       55.98289       43.10610
C         24.34889       55.51304       44.13284
H         23.30229       55.65016       43.79193
H         24.52494       54.42683       44.29855
H         24.49036       56.03957       45.09820
H         25.16337       55.53944       42.19050
Ca        26.02099       61.17575       35.92720
O         27.53201       58.34298       35.31394
H         28.02063       57.53373       35.02012
H         28.11653       59.09525       35.05073
O         24.60690       58.13929       35.08245
H         24.82336       58.10197       34.11749
H         24.63360       57.19542       35.37596

Ca 1.0



