%chk=holoCaM.loop1.water2.frame465.chk
%nprocshared=20
%mem=10GB
%nosave
#b3lyp/svp scf=(tight,noincore,xqc) Test 
#IOP(5/87=12) Density=Current Pop=(MK,readradii) iop(6/33=2) iop(6/42=6)

holoCaM.loop1.water2.frame465 

   0  1 
C         15.10704       76.50160       57.00171
C         14.96718       77.83160       56.32004
O         13.87572       78.16580       55.89327
H         16.14358       76.34086       57.36642
H         14.41426       76.44789       57.86613
H         14.86307       75.68877       56.29007
N         16.05344       78.62771       56.14430
C         16.02939       79.91580       55.46945
C         16.60435       79.72630       54.07583
O         17.74311       80.07974       53.80508
C         16.76358       80.95442       56.34294
C         17.02230       82.21621       55.57724
O         18.16941       82.58947       55.41678
O         16.01173       82.91071       55.02950
H         16.97217       78.27606       56.45484
H         14.99254       80.29177       55.31939
H         17.74337       80.54565       56.67035
H         16.15759       81.16799       57.25193
N         15.81110       79.15600       53.12841
C         16.23048       78.86736       51.76333
C         16.56355       80.11624       50.93897
O         17.10928       79.92456       49.86064
C         15.11812       78.08225       51.01109
C         14.89892       76.60780       51.42231
C         14.53796       76.35612       52.89640
C         14.24952       74.87416       53.19820
N         12.98479       74.42031       52.61591
H         14.86064       78.89130       53.41511
H         17.14876       78.24138       51.80765
H         15.38146       78.03277       49.93147
H         14.16209       78.64755       51.08893
H         15.81901       76.03074       51.18543
H         14.08150       76.23166       50.77365
H         13.65513       76.95933       53.19984
H         15.41321       76.64704       53.51451
H         14.17839       74.75070       54.29899
H         15.09100       74.23946       52.84172
H         13.00193       74.47502       51.57431
H         12.82594       73.42372       52.88946
H         12.19536       74.99604       52.99078
N         16.24591       81.39573       51.31678
C         16.53533       82.56018       50.46429
C         17.45998       83.59295       51.11618
O         17.76598       84.58541       50.46988
C         15.23020       83.16999       49.90861
C         14.28428       83.76542       50.91080
O         14.56623       83.78519       52.22701
O         13.23680       84.24962       50.51368
H         15.74279       81.54833       52.20217
H         17.08637       82.23449       49.55564
H         14.68849       82.37156       49.35392
H         15.49290       83.96377       49.17462
N         18.02649       83.38566       52.33760
C         19.07641       84.23165       52.89382
C         18.62842       85.61022       53.32769
O         19.22117       86.58696       52.89347
H         17.79721       82.52800       52.85410
H         19.91517       84.30028       52.16822
H         19.48867       83.73906       53.79477
N         17.61926       85.75778       54.22940
C         17.21331       87.03246       54.81566
C         17.15983       86.97628       56.34954
O         16.74246       87.95740       56.95010
C         15.88645       87.51028       54.18549
C         14.68444       86.62111       54.34687
O         13.62810       86.96236       53.84199
O         14.74366       85.45826       55.01574
H         17.10965       84.91810       54.51297
H         17.94718       87.82757       54.55607
H         16.06184       87.63603       53.09493
H         15.63655       88.51049       54.60258
N         17.60889       85.89405       57.05847
C         17.61305       85.82944       58.51478
C         16.24743       85.61195       59.14674
O         16.20180       85.53429       60.36643
H         18.04458       85.10362       56.56558
H         18.09086       86.74754       58.92555
H         18.23847       84.96554       58.82840
N         15.09895       85.51017       58.41251
C         13.77359       85.31287       59.00357
C         13.03048       84.14998       58.28831
O         13.86025       83.04429       58.23321
C         12.97783       86.63533       58.93283
C         13.64888       87.74408       59.76174
O         12.79563       87.05732       57.60421
H         15.15054       85.61101       57.39467
H         13.87037       85.03933       60.07804
H         11.97526       86.46505       59.37910
H         13.67159       87.36030       57.24832
H         13.03094       88.66499       59.73208
H         13.75500       87.42187       60.81982
H         14.65766       87.98836       59.36443
N         11.74247       83.79387       58.92465
C         11.10436       82.54182       58.42592
C          9.63933       82.82713       58.09895
O          8.88407       83.21317       58.97971
C         11.24088       81.33823       59.44603
C         12.71091       80.83397       59.51401
C         10.30487       80.17100       59.07172
C         12.96891       79.60639       60.38691
H         11.81146       83.79512       59.96821
H         11.57763       82.22162       57.46984
H         10.91716       81.67606       60.45478
H         13.34090       81.63394       59.94471
H         13.05731       80.57946       58.48540
H          9.24634       80.49528       59.06996
H         10.57060       79.75661       58.08377
H         10.34640       79.36447       59.82992
H         14.05574       79.37327       60.36289
H         12.66649       79.80650       61.43443
H         12.44354       78.71042       59.99841
N          9.17649       82.61974       56.82889
C          7.78817       82.81059       56.40473
C          6.93567       81.58536       56.71873
O          7.44137       80.60730       57.24818
C          7.72120       83.06434       54.86513
C          8.51554       84.30254       54.43705
O          8.11073       81.92228       54.13625
H          9.85396       82.31211       56.12100
H          7.36859       83.70948       56.90770
H          6.67421       83.28423       54.57261
H          9.09462       81.92625       54.03152
H          8.14035       85.20271       54.96688
H          9.58918       84.16903       54.66641
H          8.40288       84.45783       53.34303
N          5.62526       81.56027       56.34287
C          4.78250       80.36645       56.37538
C          5.33331       79.29096       55.44058
O          5.36928       78.13624       55.83827
C          3.32224       80.70314       55.97642
C          2.65253       81.60878       57.01742
O          3.28862       81.32207       54.71674
H          5.21981       82.42438       55.95547
H          4.74067       79.95201       57.40861
H          2.75060       79.74511       55.94244
H          2.35566       81.25367       54.38423
H          2.64947       81.11005       58.01015
H          3.17836       82.58173       57.10486
H          1.59917       81.80292       56.72420
N          5.77413       79.59452       54.18112
C          6.30562       78.58393       53.25852
C          7.61698       77.97029       53.76143
O          8.06228       76.99661       53.16655
C          6.56819       79.16653       51.84299
C          5.32859       79.55115       51.00569
C          4.49326       80.70250       51.57908
C          3.40753       81.21455       50.61972
N          2.40817       80.19331       50.30464
H          5.73616       80.57709       53.88202
H          5.55550       77.76763       53.16479
H          7.07960       78.38287       51.23975
H          7.26383       80.03131       51.91835
H          4.69216       78.65180       50.86463
H          5.70681       79.86885       50.00913
H          5.16923       81.55895       51.79461
H          3.99891       80.36977       52.51029
H          3.87623       81.58588       49.68168
H          2.89852       82.07431       51.11021
H          1.66014       80.62555       49.71573
H          2.83874       79.41110       49.76272
H          1.97576       79.82744       51.18382
N          8.30121       78.48621       54.82177
C          9.55327       77.94609       55.33907
C          9.40393       77.44835       56.77628
O         10.37453       76.92634       57.30579
C         10.63062       79.04826       55.28299
C         10.97042       79.47916       53.85028
C         11.95305       80.61892       53.84765
O         13.02553       80.50730       53.28091
O         11.64436       81.78431       54.44432
H          7.94085       79.32713       55.28235
H          9.89086       77.07259       54.73770
H         11.55389       78.68625       55.76922
H         10.26314       79.92734       55.85228
H         10.05304       79.81633       53.32699
H         11.39342       78.61101       53.29750
N          8.23334       77.56599       57.47046
C          8.04812       77.10410       58.83018
H          7.21661       76.36814       58.85387
H          8.95733       76.62435       59.24605
H          7.77604       77.96732       59.47374
H          7.41978       78.00823       57.03882
Ca        14.07470       82.66500       56.04380
O         11.18543       84.34947       52.62780
H         10.70897       84.89610       51.95379
H         12.04145       84.82377       52.77376
O         11.36651       85.66501       55.67417
H         10.71665       86.09731       56.28339
H         11.32427       86.20897       54.84885

Ca 1.0



