%chk=holoCaM.loop4.water3.frame32.chk
%nprocshared=20
%mem=10GB
%nosave
#b3lyp/svp scf=(tight,noincore,xqc) Test 
#IOP(5/87=12) Density=Current Pop=(MK,readradii) iop(6/33=2) iop(6/42=6)

holoCaM.loop4.water3.frame32 

   -3  1 
C        101.72059       96.08319       27.54736
C        102.22112       97.22545       26.71072
O        101.70480       97.46080       25.62913
H        100.88934       95.54847       27.04276
H        102.54631       95.36931       27.75001
H        101.34767       96.48049       28.51696
N        103.22297       98.00580       27.18953
C        103.71650       99.20545       26.52527
C        104.37516       98.93223       25.17145
O        105.23805       98.07350       25.05962
C        104.69125       99.93358       27.46132
C        105.23413      101.17625       26.83139
O        104.43913      102.16883       26.39204
O        106.43889      101.28338       26.67012
H        103.61080       97.76292       28.11577
H        102.85991       99.90024       26.37959
H        105.53760       99.25804       27.71721
H        104.16534      100.20998       28.40020
N        104.05662       99.74812       24.12610
C        104.62549       99.71131       22.78094
C        105.39275      101.00931       22.50398
O        106.50049      100.94169       21.99064
C        103.47299       99.59422       21.72673
C        102.54227       98.37953       21.95516
C        103.99803       99.60934       20.27431
C        103.16396       97.00507       21.71362
H        103.36573      100.48184       24.31268
H        105.31410       98.84603       22.65504
H        102.82753      100.49333       21.84373
H        101.66318       98.47617       21.27892
H        102.17489       98.41257       22.99565
H        104.55468      100.54431       20.05714
H        104.68020       98.75512       20.08349
H        103.14953       99.56172       19.55849
H        103.47854       96.89085       20.65587
H        104.02816       96.83591       22.38567
H        102.39765       96.22663       21.91787
N        104.81370      102.22570       22.74326
C        105.30226      103.50220       22.21362
C        105.83177      104.48944       23.26025
O        106.20291      105.59070       22.87861
C        104.15871      104.12570       21.37360
C        102.91633      104.49160       22.15463
O        102.85905      104.34468       23.49010
O        101.94327      104.93224       21.56525
H        103.91577      102.23857       23.23850
H        106.15230      103.31981       21.52142
H        103.86721      103.38653       20.59518
H        104.52348      105.03980       20.86065
N        105.95463      104.15949       24.57356
C        106.53965      105.03279       25.58589
C        105.75318      106.30655       25.80313
O        106.29712      107.37944       25.58291
H        105.69257      103.21585       24.85266
H        107.58089      105.27963       25.28473
H        106.58793      104.49149       26.55605
N        104.46554      106.25904       26.24491
C        103.63306      107.44678       26.44642
C        103.05809      107.56286       27.85799
O        102.35217      108.53139       28.10316
C        102.52428      107.47461       25.36500
C        101.60661      106.27637       25.30610
O        101.65321      105.30110       26.23600
O        100.79425      106.20509       24.40010
H        104.05424      105.32981       26.40274
H        104.23359      108.36984       26.28793
H        103.03904      107.53277       24.38161
H        101.90717      108.39392       25.47470
N        103.30006      106.64275       28.84150
C        102.69844      106.71873       30.17248
C        101.19226      106.45968       30.18916
O        100.60788      106.49110       31.26119
H        103.94469      105.86165       28.66071
H        102.92213      107.71062       30.62379
H        103.16222      105.94132       30.81724
N        100.50616      106.19332       29.04275
C         99.07486      105.94253       28.92732
C         98.85452      104.57856       28.26779
O         99.83297      103.91208       27.96061
C         98.46265      107.06810       28.06328
C         98.78867      108.45907       28.64133
C         98.24075      109.57328       27.79205
N         97.41691      110.50428       28.32563
O         98.56806      109.65588       26.61714
H        101.01325      106.19479       28.16807
H         98.59241      105.94774       29.92856
H         97.36124      106.94016       27.99748
H         98.88692      107.00442       27.03523
H         99.88656      108.60019       28.67943
H         98.39892      108.52993       29.67921
H         97.14928      110.46562       29.31991
H         97.05971      111.27881       27.74736
N         97.59762      104.08867       28.02950
C         97.36626      102.78363       27.40125
C         96.49448      102.92509       26.15127
O         95.37688      103.41054       26.24281
C         96.80530      101.77388       28.44351
C         95.40054      102.11795       28.96178
C         96.82415      100.34116       27.88734
H         96.78426      104.64569       28.32640
H         98.33998      102.35339       27.08938
H         97.49891      101.78773       29.31439
H         95.37749      103.13529       29.40151
H         94.64381      102.04855       28.15394
H         95.10823      101.39841       29.75562
H         96.15597      100.24538       27.00766
H         97.85665      100.06114       27.58686
H         96.49479       99.62052       28.66563
N         96.96464      102.52064       24.93473
C         96.19899      102.60494       23.68788
C         95.03825      101.61126       23.70794
O         94.92600      100.85054       24.65324
C         97.16816      102.31109       22.50840
C         96.59568      102.45639       21.12193
N         96.10592      103.64178       20.69269
O         96.59784      101.49581       20.36691
H         97.91808      102.14032       24.89235
H         95.81631      103.64259       23.57922
H         97.56290      101.28391       22.62822
H         98.02447      103.01412       22.57111
H         96.10572      104.46721       21.30809
H         95.72816      103.73383       19.73821
N         94.12516      101.56654       22.69827
C         93.08038      100.54788       22.60579
C         93.68879       99.17277       22.34596
O         93.41780       98.26025       23.11341
C         91.96323      100.89257       21.58058
C         92.35440      101.27587       20.16893
C         92.21629      100.36210       19.11045
C         92.77168      102.58945       19.88065
C         92.51733      100.74843       17.79837
C         93.07102      102.97224       18.57298
C         92.94714      102.05617       17.52726
O         93.22987      102.44834       16.26877
H         94.19277      102.28065       21.97306
H         92.53553      100.49820       23.57644
H         91.35255      101.73236       21.97872
H         91.26927      100.02274       21.55034
H         91.87296       99.35263       19.29815
H         92.84338      103.33485       20.66164
H         92.40766      100.03431       16.99239
H         93.38659      103.98883       18.37278
H         93.14451      101.85274       15.51127
N         94.53962       98.95670       21.30174
C         95.17617       97.66326       21.02889
C         95.95400       97.15804       22.23460
O         95.74975       96.01516       22.62057
C         96.10214       97.73779       19.79487
C         95.30228       97.97136       18.50216
C         96.19708       97.95588       17.29716
O         96.03384       97.11981       16.42228
O         97.17493       98.87229       17.16751
H         94.76164       99.75676       20.69360
H         94.39375       96.90462       20.79999
H         96.62522       96.76033       19.68804
H         96.87141       98.52956       19.93509
H         94.77370       98.94464       18.53608
H         94.54333       97.16347       18.39955
N         96.81121       97.96888       22.91681
C         97.51225       97.54936       24.13460
C         96.52696       97.00959       25.15625
O         96.71850       95.90635       25.64765
C         98.28544       98.72513       24.77132
C         99.41630       99.24056       23.87613
C        100.18453      100.36738       24.51048
O         99.92230      100.77669       25.76651
O        101.05410      100.93127       23.87079
H         96.91160       98.93911       22.58603
H         98.24348       96.74483       23.89305
H         98.73867       98.37514       25.72655
H         97.58362       99.55741       24.99730
H         99.01142       99.60261       22.91389
H        100.10450       98.40363       23.66070
N         95.42594       97.73310       25.48657
C         94.41624       97.30655       26.42891
H         93.44579       97.20313       25.89845
H         94.66740       96.33781       26.90628
H         94.30908       98.07911       27.21871
H         95.27645       98.62646       25.01574
Ca       102.44833      103.18451       26.10045
O        101.33148      100.51236       28.49354
H        100.75405       99.74006       28.26852
H        100.72702      101.15554       28.94117
O        102.85478      103.24772       28.96778
H        102.46322      103.32342       29.87324
H        103.82240      103.41319       29.09553
O         99.83739      103.63803       24.66658
H         99.09154      104.27933       24.78340
H        100.04553      103.66739       23.69959

Ca 1.0



