%chk=holoCaM.loop4.water3.frame68.chk
%nprocshared=20
%mem=10GB
%nosave
#b3lyp/svp scf=(tight,noincore,xqc) Test 
#IOP(5/87=12) Density=Current Pop=(MK,readradii) iop(6/33=2) iop(6/42=6)

holoCaM.loop4.water3.frame68 

   -3  1 
C        100.90407        6.92683       19.87625
C        101.28227        7.86282       20.98645
O        100.64936        7.80447       22.02878
H         99.85661        7.11336       19.56241
H        101.57310        7.04179       18.99863
H        100.98746        5.88000       20.24239
N        102.34482        8.71015       20.86132
C        102.84348        9.52557       21.96345
C        103.19749       10.94199       21.50916
O        103.97215       11.06511       20.56849
C        104.11291        8.83636       22.49624
C        104.61529        9.44944       23.76585
O        103.88799       10.38030       24.40852
O        105.66386        9.05976       24.25209
H        102.90050        8.67448       19.99249
H        102.10114        9.55782       22.79017
H        104.90578        8.87745       21.71802
H        103.89815        7.76778       22.71656
N        102.73262       12.05372       22.16500
C        103.14319       13.41900       21.80733
C        103.89380       14.16869       22.92517
O        104.40040       15.23818       22.62163
C        101.93047       14.27551       21.31914
C        100.84779       14.43042       22.42060
C        101.34566       13.68953       20.02201
C         99.74833       15.43592       22.07178
H        102.08362       11.92163       22.95350
H        103.86987       13.37612       20.96598
H        102.31880       15.28887       21.07005
H        101.32403       14.79359       23.35605
H        100.37530       13.45091       22.62584
H        100.91921       12.67962       20.19723
H        100.55455       14.34608       19.60650
H        102.13928       13.61589       19.24825
H         99.16951       15.12086       21.18104
H         99.03854       15.51183       22.92306
H        100.18968       16.43923       21.89202
N        103.96892       13.73133       24.22391
C        104.59549       14.53089       25.29788
C        105.62324       13.77876       26.14675
O        106.21399       14.40801       27.01631
C        103.49191       15.10761       26.21404
C        102.70077       14.05840       26.94573
O        103.03100       12.75951       26.84027
O        101.69352       14.37761       27.55513
H        103.48157       12.86565       24.47226
H        105.12415       15.40182       24.85552
H        102.79143       15.68072       25.56704
H        103.92263       15.81165       26.95761
N        105.87422       12.44986       25.99505
C        106.81520       11.71011       26.81998
C        106.43743       11.69755       28.29102
O        107.23051       12.17927       29.08723
H        105.39825       11.93133       25.25408
H        107.82607       12.15768       26.69298
H        106.86666       10.65735       26.46851
N        105.26531       11.13785       28.72999
C        104.89862       11.06963       30.15372
C        104.76211        9.63859       30.68178
O        104.86345        9.45541       31.88716
C        103.61696       11.87682       30.44387
C        102.36456       11.21452       29.92993
O        102.23087       10.96293       28.74579
O        101.38407       10.87896       30.79012
H        104.62293       10.75811       28.02299
H        105.70796       11.54612       30.74862
H        103.71675       12.89442       30.00749
H        103.50940       11.98915       31.54500
N        104.48678        8.58932       29.85446
C        104.38696        7.20089       30.27837
C        103.01548        6.58311       30.04204
O        102.90743        5.37687       30.20903
H        104.35257        8.76624       28.85883
H        104.64044        7.07380       31.35309
H        105.13573        6.62764       29.69041
N        101.91330        7.32904       29.72586
C        100.56853        6.76394       29.58496
C         99.87805        7.26832       28.33322
O         99.75677        8.47415       28.16360
C         99.69978        7.16359       30.79034
C        100.11654        6.41703       32.06388
C         99.22674        6.79247       33.21739
N         99.22594        8.05496       33.70306
O         98.50332        5.94737       33.72354
H        102.00581        8.35231       29.66756
H        100.59281        5.65204       29.55331
H         98.64382        6.87525       30.58214
H         99.73737        8.26650       30.93127
H        101.17168        6.63376       32.33087
H        100.02003        5.32425       31.87085
H         99.84195        8.77468       33.29793
H         98.61709        8.31044       34.49414
N         99.32727        6.38903       27.44463
C         98.54811        6.82792       26.28888
C         97.29920        7.59864       26.72724
O         96.75209        7.32491       27.78657
C         98.23777        5.64600       25.32032
C         97.28030        4.60030       25.91503
C         97.68963        6.14580       23.97438
H         99.46474        5.38001       27.60268
H         99.20039        7.52296       25.72295
H         99.20522        5.14154       25.09877
H         97.68117        4.17389       26.85625
H         96.28351        5.04527       26.11768
H         97.14812        3.76165       25.19712
H         96.70310        6.63764       24.09644
H         98.40202        6.86454       23.51736
H         97.56936        5.29640       23.26872
N         96.84056        8.62176       25.95573
C         95.73377        9.51643       26.28781
C         94.62298        9.38684       25.24914
O         94.77365        8.64517       24.28899
C         96.33921       10.94549       26.32914
C         95.40334       12.11055       26.53657
N         94.66358       12.23278       27.66072
O         95.33810       12.97893       25.67885
H         97.33951        8.80937       25.07966
H         95.29874        9.25903       27.27852
H         96.86994       11.11822       25.36837
H         97.09371       10.96821       27.13932
H         94.70612       11.52162       28.40306
H         94.04351       13.04728       27.78280
N         93.44852       10.06114       25.41106
C         92.35502       10.04863       24.44329
C         92.77890       10.68440       23.12390
O         92.56819       10.06450       22.09134
C         91.06103       10.64326       25.06276
C         91.13365       12.05745       25.59569
C         91.08419       13.16412       24.73493
C         91.20602       12.27755       26.98409
C         91.12347       14.46482       25.25357
C         91.25918       13.57544       27.49741
C         91.22190       14.67354       26.63575
O         91.27844       15.92034       27.14587
H         93.31521       10.59138       26.28012
H         92.07840        8.98954       24.23301
H         90.81620        9.97172       25.91606
H         90.20513       10.55774       24.35825
H         91.00354       13.02277       23.66468
H         91.23469       11.44278       27.67336
H         91.08123       15.31130       24.57972
H         91.33035       13.72605       28.56732
H         91.26510       16.70804       26.58377
N         93.42975       11.88627       23.07401
C         93.89621       12.48475       21.81633
C         94.98868       11.66855       21.12447
O         95.35007       12.03210       20.01316
C         94.48061       13.90183       22.03225
C         93.46590       14.90667       22.57675
C         94.08501       16.26586       22.73044
O         94.52574       16.85734       21.75745
O         94.14987       16.84268       23.94563
H         93.59471       12.38334       23.95862
H         93.02397       12.56243       21.12880
H         94.83728       14.29297       21.05268
H         95.35227       13.83994       22.72199
H         93.12361       14.56847       23.56646
H         92.59439       14.97898       21.89035
N         95.57492       10.58156       21.70321
C         96.66068        9.82956       21.08112
C         96.21583        8.45071       20.63162
O         96.99485        7.79215       19.95571
C         97.79277        9.62876       22.09414
C         98.36328       10.92646       22.66052
C         99.34166       10.67120       23.76984
O         99.64097        9.54403       24.12880
O         99.87674       11.72331       24.39286
H         95.26862       10.28275       22.63243
H         97.03807       10.36707       20.18400
H         98.61128        9.04949       21.62817
H         97.37200        9.03303       22.92707
H         97.54709       11.54684       23.08449
H         98.86576       11.49862       21.85192
N         95.01084        7.92532       20.99118
C         94.57141        6.60431       20.60013
H         93.60469        6.68925       20.06327
H         95.30011        6.09374       19.93697
H         94.42973        5.98496       21.51042
H         94.37320        8.45574       21.59452
Ca       101.39189       11.52637       26.00633
O        103.79414        8.45165       26.54318
H        103.92926        7.50973       26.81505
H        104.69654        8.85405       26.59887
O        101.66145        7.32840       25.23226
H        102.10096        6.48114       24.97400
H        101.62150        7.85090       24.39526
O         99.23112       11.92567       28.02081
H         99.29975       11.10294       28.56659
H        100.05580       12.42971       28.22677

Ca 1.0



