%chk=holoCaM.loop3.water2.frame178.chk
%nprocshared=20
%mem=10GB
%nosave
#b3lyp/svp scf=(tight,noincore,xqc) Test 
#IOP(5/87=12) Density=Current Pop=(MK,readradii) iop(6/33=2) iop(6/42=6)

holoCaM.loop3.water2.frame178 

   0  1 
C         35.60592       80.88159       92.60119
C         34.71477       82.08214       92.68309
O         35.20960       83.18103       92.89147
H         36.66272       81.15918       92.80194
H         35.28660       80.12227       93.34580
H         35.53488       80.44865       91.58164
N         33.36701       81.93286       92.55386
C         32.42763       83.04239       92.59583
C         31.71502       83.04404       93.93576
O         30.49971       82.92930       94.00968
C         31.49247       82.95253       91.37390
C         30.53181       84.09924       91.31749
O         30.99806       85.35465       91.25152
O         29.32876       83.89899       91.33142
H         32.98487       80.98034       92.44649
H         32.96830       84.01480       92.53937
H         30.93007       81.99397       91.40244
H         32.10401       82.97431       90.44617
N         32.46269       83.21466       95.05817
C         31.91601       83.37610       96.39858
C         31.07883       84.64562       96.46821
O         29.93951       84.56764       96.90677
C         33.07557       83.39359       97.42289
C         33.68043       81.97443       97.56393
C         34.90353       81.91738       98.49643
C         36.19971       82.47278       97.87266
N         36.72237       81.59655       96.81710
H         33.48610       83.27723       94.94366
H         31.26231       82.51359       96.66162
H         32.69199       83.68832       98.42498
H         33.83356       84.14422       97.11254
H         33.93339       81.53186       96.58034
H         32.88557       81.33538       98.00780
H         35.10018       80.86062       98.78178
H         34.65929       82.47207       99.42800
H         36.96762       82.53055       98.67532
H         36.04442       83.50003       97.48126
H         36.92875       80.64881       97.21124
H         36.05343       81.50567       96.02150
H         37.61446       81.99783       96.44852
N         31.56111       85.84442       96.02215
C         30.78540       87.08997       96.08518
C         29.44542       87.04522       95.33881
O         28.63595       87.93496       95.56133
C         31.61669       88.29898       95.60373
C         31.94668       88.23510       94.13933
O         31.57629       89.12795       93.39549
O         32.67081       87.21379       93.64550
H         32.52530       85.86672       95.65987
H         30.55316       87.25380       97.16073
H         32.56462       88.35561       96.17900
H         31.04453       89.23318       95.79961
N         29.12533       86.04521       94.46922
C         27.80678       85.89128       93.87222
C         27.41340       87.02173       92.94646
O         26.39111       87.65069       93.17785
H         29.82255       85.32296       94.25322
H         27.05565       85.77880       94.68406
H         27.79214       84.95327       93.27648
N         28.16046       87.29071       91.84176
C         27.79933       88.26872       90.81185
C         27.66350       87.60372       89.44189
O         27.45382       88.30942       88.46424
C         28.81254       89.43831       90.76362
C         30.21229       89.07545       90.23324
N         31.06579       90.25895       90.24680
O         30.74102       88.10988       91.08379
H         29.00880       86.73004       91.71275
H         26.82032       88.73530       91.05903
H         28.89784       89.87703       91.78342
H         28.39189       90.22559       90.09961
H         30.55585       91.07896       89.84381
H         31.85976       90.06758       89.60123
N         27.73740       86.24680       89.29554
C         27.59428       85.56430       88.02367
C         28.83210       85.59666       87.15079
O         28.77495       84.98982       86.09150
H         27.81820       85.64450       90.12436
H         26.70668       85.95602       87.48071
H         27.40861       84.48781       88.23057
N         29.98529       86.23885       87.51031
C         31.19094       86.20265       86.68367
C         32.39007       85.68086       87.44930
O         32.37182       85.60349       88.66669
C         31.50460       87.62078       86.16141
C         30.50340       88.05636       85.12357
C         29.62249       89.12394       85.35925
C         30.46282       87.39132       83.88623
C         28.70933       89.51151       84.37101
C         29.55718       87.78366       82.90048
C         28.67476       88.84523       83.13967
O         27.79510       89.23328       82.19458
H         30.02317       86.77350       88.38901
H         31.05641       85.51170       85.82470
H         32.50631       87.66035       85.67892
H         31.52864       88.32058       87.02749
H         29.63721       89.65161       86.30488
H         31.14286       86.57362       83.68074
H         28.02938       90.33227       84.56063
H         29.54567       87.26253       81.95140
H         27.74657       88.79970       81.33017
N         33.49476       85.31256       86.74106
C         34.78076       84.95790       87.32204
C         35.79323       85.90910       86.71685
O         35.92971       85.94677       85.50213
C         35.14760       83.47005       87.03549
C         34.15536       82.53708       87.78018
C         36.60194       83.17138       87.47451
C         34.33867       81.05099       87.46036
H         33.43349       85.32356       85.71114
H         34.77007       85.08382       88.42611
H         35.07385       83.29053       85.94006
H         33.11621       82.80246       87.49349
H         34.25751       82.68284       88.87940
H         37.32249       83.81619       86.93004
H         36.73061       83.34182       88.56512
H         36.89537       82.13074       87.23425
H         34.20753       80.87563       86.37189
H         35.33241       80.67647       87.77739
H         33.57507       80.46078       88.00968
N         36.56055       86.68677       87.52255
C         37.57531       87.60243       87.02890
C         38.95126       87.02720       87.29317
O         39.06279       85.95033       87.85949
C         37.38448       88.98023       87.68541
O         37.56989       88.88357       89.07305
H         36.45680       86.58705       88.53467
H         37.48591       87.72451       85.92800
H         36.35454       89.33629       87.44975
H         38.10974       89.71426       87.27595
H         37.04813       89.61952       89.48559
N         40.05675       87.68581       86.85709
C         41.40612       87.16413       87.02483
C         41.76129       87.00459       88.49106
O         42.18235       85.92556       88.88469
C         42.41261       88.09491       86.34032
H         39.92790       88.58040       86.36031
H         41.48273       86.17649       86.51611
H         42.38825       89.11029       86.78940
H         43.43901       87.68048       86.43180
H         42.16733       88.17872       85.25927
N         41.61688       88.04687       89.35583
C         42.02575       87.99719       90.75590
C         41.36359       86.86806       91.52641
O         42.07930       86.05443       92.09372
C         41.72654       89.33650       91.44124
H         41.22151       88.92725       88.98873
H         43.12804       87.84599       90.79278
H         42.07392       89.31361       92.49628
H         42.25924       90.15810       90.91655
H         40.63734       89.55621       91.42663
N         40.00742       86.76529       91.61313
C         39.33847       85.74277       92.42081
C         39.75499       84.34572       91.99400
O         40.14000       83.55700       92.84624
C         37.80879       85.97364       92.43458
C         37.08359       85.65620       91.11711
C         35.80609       86.44173       91.02774
O         35.86785       87.65749       91.01087
O         34.59941       85.86280       90.93883
H         39.43469       87.46124       91.11058
H         39.65425       85.89182       93.47837
H         37.68343       87.04931       92.69409
H         37.32022       85.39136       93.24722
H         36.91179       84.55890       91.04025
H         37.70040       85.97915       90.26111
N         39.79935       84.00362       90.67727
C         40.29118       82.72163       90.22565
H         41.33602       82.57456       90.57629
H         39.64708       81.90650       90.61410
H         40.28988       82.68815       89.11488
H         39.52666       84.69039       89.96392
Ca        32.89059       87.36216       90.89560
O         34.34518       89.64309       89.45673
H         34.06261       90.15522       88.65813
H         34.47669       90.32852       90.15915
O         34.77251       89.42834       92.88195
H         34.71390       89.36555       93.86745
H         35.74014       89.53220       92.70034

Ca 1.0



