%chk=holoCaM-CaMKII.loop4.water2.frame55.chk
%nprocshared=20
%mem=10GB
%nosave
#b3lyp/svp scf=(tight,noincore,xqc) Test 
#IOP(5/87=12) Density=Current Pop=(MK,readradii) iop(6/33=2) iop(6/42=6)

holoCaM-CaMKII.loop4.water2.frame55 

   -3  1 
C         14.20807       54.96180       71.62235
C         15.32834       54.28644       70.88534
O         16.43608       54.79754       70.89193
H         13.25737       54.39476       71.52372
H         14.46030       55.04343       72.69907
H         14.04888       55.97672       71.20124
N         15.10471       53.12026       70.22490
C         16.11190       52.41785       69.43653
C         16.53896       53.26161       68.23823
O         15.67897       53.75822       67.52413
C         15.52676       51.07024       68.99112
C         16.47753       50.31246       68.12983
O         16.13472       50.00187       67.00557
O         17.70461       49.98417       68.57661
H         14.15854       52.71127       70.28444
H         16.99471       52.18764       70.07265
H         14.57908       51.23434       68.43162
H         15.30081       50.45724       69.89151
N         17.86429       53.44082       67.95395
C         18.36425       54.31584       66.89424
C         18.97719       53.49043       65.76276
O         18.45942       53.57214       64.65671
C         19.32087       55.37341       67.53467
C         18.48611       56.28072       68.48209
C         20.06019       56.21431       66.48045
C         19.29025       57.29289       69.29399
H         18.56254       52.94872       68.53118
H         17.52266       54.87563       66.42566
H         20.09561       54.83604       68.12648
H         17.96728       55.64103       69.21683
H         17.71415       56.82751       67.89649
H         20.76791       56.91660       66.96817
H         20.67632       55.56250       65.82719
H         19.34573       56.79022       65.85737
H         20.04604       56.76759       69.90724
H         19.78764       58.03977       68.64501
H         18.60122       57.84213       69.97243
N         20.06665       52.68567       65.93390
C         20.65161       51.91254       64.82266
C         19.74928       50.77425       64.30518
O         20.13150       50.13640       63.33417
C         22.05282       51.38508       65.20266
C         22.02117       50.41899       66.34361
O         20.84150       50.02083       66.85263
O         23.06423       50.07483       66.87584
H         20.51937       52.67257       66.86105
H         20.82521       52.61903       63.98031
H         22.66444       52.26442       65.50902
H         22.55634       50.91247       64.33211
N         18.53284       50.48988       64.86069
C         17.57906       49.55300       64.27747
C         17.83305       48.08711       64.58063
O         17.89933       47.30400       63.64444
H         18.19719       51.05007       65.65433
H         17.49558       49.73879       63.18427
H         16.57663       49.77856       64.68557
N         17.92520       47.63348       65.86738
C         18.03614       46.21703       66.23205
C         17.04723       45.77581       67.33273
O         17.09625       44.61207       67.70738
C         19.49083       45.88230       66.60940
C         20.07277       46.79017       67.64682
O         21.10416       47.39599       67.41183
O         19.47678       46.93525       68.83805
H         17.95227       48.32710       66.62500
H         17.80808       45.57237       65.35407
H         20.11711       45.95734       65.69333
H         19.54769       44.83065       66.96342
N         16.09942       46.60426       67.86291
C         15.06988       46.15435       68.79839
C         15.43297       46.26561       70.26949
O         14.54184       46.04873       71.08105
H         15.99313       47.55047       67.48221
H         14.71904       45.12942       68.54586
H         14.19187       46.82295       68.66209
N         16.67695       46.61497       70.70600
C         16.99694       46.86534       72.11352
C         17.53580       48.28152       72.27538
O         17.73542       48.96163       71.27526
C         18.00684       45.82643       72.64633
C         17.45093       44.39514       72.58572
C         18.42027       43.40999       73.19146
N         18.93634       42.39828       72.45486
O         18.73574       43.52130       74.36719
H         17.42427       46.74170       70.01519
H         16.07917       46.79531       72.73867
H         18.24054       46.06536       73.70691
H         18.94797       45.87294       72.06274
H         17.24363       44.12650       71.52752
H         16.49711       44.33835       73.15347
H         18.68394       42.28101       71.46305
H         19.59312       41.72628       72.87952
N         17.75560       48.81278       73.51361
C         18.22417       50.18066       73.72637
C         19.51125       50.16853       74.53402
O         19.48606       49.81642       75.70668
C         17.10319       51.01746       74.41026
C         17.57676       52.41653       74.83957
C         15.90419       51.17097       73.45813
H         17.54356       48.23943       74.34605
H         18.44701       50.66775       72.75409
H         16.76647       50.48581       75.32833
H         18.38783       52.34279       75.59253
H         17.93772       52.99967       73.96826
H         16.74133       52.96963       75.32058
H         16.20959       51.72257       72.54238
H         15.50203       50.18192       73.15658
H         15.08585       51.73729       73.95114
N         20.68529       50.55002       73.95233
C         21.95205       50.64897       74.67456
C         21.96349       51.91226       75.53160
O         21.02412       52.69070       75.45830
C         23.10811       50.66115       73.64303
C         24.49353       50.61512       74.23816
N         24.88226       49.57752       75.01568
O         25.27831       51.52237       74.00980
H         20.68063       50.76190       72.94293
H         22.06581       49.74439       75.31088
H         23.00693       51.56272       72.99752
H         23.00537       49.76073       73.00247
H         24.24102       48.79755       75.21773
H         25.83010       49.55622       75.42057
N         23.00099       52.18581       76.37224
C         23.07152       53.39969       77.17351
C         23.17965       54.63443       76.28480
O         22.40813       55.56354       76.47609
C         24.28812       53.35786       78.12485
C         24.16725       54.42002       79.19287
C         23.21373       54.26582       80.21595
C         24.98825       55.55806       79.18788
C         23.08562       55.22977       81.21801
C         24.84769       56.53103       80.18528
C         23.89706       56.36731       81.20535
O         23.75367       57.29288       82.17531
H         23.75562       51.49561       76.47437
H         22.15365       53.44727       77.80233
H         25.22115       53.47189       77.53056
H         24.35181       52.37795       78.64692
H         22.57666       53.38990       80.24424
H         25.72327       55.70025       78.40605
H         22.35347       55.09158       82.00437
H         25.47713       57.41133       80.16500
H         24.28948       58.09806       82.20313
N         24.13095       54.71537       75.29907
C         24.33422       55.91669       74.48165
C         23.08866       56.34374       73.71615
O         23.03452       57.47696       73.25918
C         25.53032       55.75111       73.50601
C         25.26286       54.75590       72.35557
C         26.46973       54.60121       71.47235
O         27.03571       53.38975       71.30940
O         26.93254       55.56595       70.88403
H         24.75434       53.90693       75.15642
H         24.58618       56.73028       75.19653
H         26.42004       55.42049       74.08631
H         25.76687       56.74047       73.05617
H         24.42138       55.11791       71.72629
H         24.98576       53.76390       72.76359
N         22.06979       55.47052       73.50048
C         20.84069       55.81406       72.80104
C         19.88294       56.46368       73.76953
O         19.35191       57.52440       73.47287
C         20.20118       54.54496       72.21454
C         21.15197       53.87808       71.21363
C         20.63258       52.57773       70.70053
O         21.45817       51.81988       69.97243
O         19.51071       52.17617       70.96382
H         22.17977       54.49817       73.82128
H         21.05263       56.48789       71.94238
H         19.24869       54.80152       71.69906
H         19.98278       53.82746       73.03455
H         22.11631       53.65092       71.71065
H         21.35826       54.55557       70.35535
N         19.63122       55.87460       74.97113
C         18.72145       56.43237       75.94249
H         17.68980       56.42311       75.53457
H         18.74559       55.81935       76.86952
H         19.02192       57.47044       76.19695
H         20.12223       55.00572       75.22023
Ca        20.79375       49.91179       69.05016
O         21.42009       47.54401       71.08112
H         21.93493       46.95027       70.47895
H         20.50577       47.16984       71.07217
O         23.44613       49.73612       70.45561
H         23.50907       49.70253       69.46937
H         23.99961       50.51520       70.71313

Ca 1.0



