%chk=holoCaM-CaMKII.loop1.water2.frame135.chk
%nprocshared=20
%mem=10GB
%nosave
#b3lyp/svp scf=(tight,noincore,xqc) Test 
#IOP(5/87=12) Density=Current Pop=(MK,readradii) iop(6/33=2) iop(6/42=6)

holoCaM-CaMKII.loop1.water2.frame135 

   0  1 
C         24.25889       46.22040       74.08799
C         23.21164       46.27157       75.15958
O         23.52860       46.68019       76.26810
H         25.08409       45.54953       74.40411
H         23.84044       45.84911       73.12945
H         24.66331       47.24195       73.92234
N         21.92564       45.90018       74.89594
C         20.86799       46.01396       75.89015
C         21.12943       45.07055       77.05824
O         21.11515       43.86084       76.88028
C         19.48744       45.78970       75.23482
C         18.35243       46.17925       76.13540
O         17.23440       46.31234       75.67453
O         18.59510       46.49409       77.41730
H         21.68588       45.58946       73.94182
H         20.87927       47.07275       76.24090
H         19.36330       44.74985       74.86442
H         19.43576       46.47946       74.36334
N         21.45178       45.58815       78.27535
C         21.87299       44.78901       79.42201
C         20.70682       44.05128       80.06953
O         20.83873       42.86670       80.34139
C         22.59789       45.70668       80.43613
C         23.44995       44.94687       81.46438
C         24.26812       45.94427       82.30690
C         25.31350       45.27524       83.21411
N         24.71054       44.41759       84.23277
H         21.51126       46.61459       78.35093
H         22.64931       44.07000       79.07506
H         21.88454       46.37274       80.95665
H         23.30839       46.33635       79.85367
H         24.16021       44.29116       80.91439
H         22.80279       44.31743       82.11065
H         23.58514       46.57978       82.91164
H         24.83479       46.60936       81.61746
H         25.89552       46.07853       83.71919
H         26.02335       44.68217       82.59498
H         25.46908       44.04715       84.85017
H         24.03973       44.96894       84.81513
H         24.22338       43.60712       83.78939
N         19.53240       44.69750       80.34174
C         18.40775       44.09301       81.06496
C         17.21308       43.74695       80.17229
O         16.22851       43.23941       80.69205
C         18.00842       44.99401       82.25958
C         17.47845       46.35960       81.89890
O         17.35717       46.70978       80.73689
O         17.12566       47.20820       82.88294
H         19.43766       45.66929       80.01940
H         18.72536       43.12101       81.50140
H         18.90047       45.13092       82.90812
H         17.22828       44.47790       82.86012
N         17.25705       43.89853       78.81970
C         16.22758       43.40036       77.91925
C         14.89349       44.10781       78.01183
O         13.88553       43.44731       78.21876
H         18.10483       44.28292       78.38540
H         16.09580       42.30842       78.08570
H         16.58380       43.53317       76.87453
N         14.80844       45.44424       77.77307
C         13.55187       46.17346       77.60807
C         13.46858       46.79438       76.20516
O         12.60246       47.62636       75.97280
C         13.37592       47.20732       78.74002
C         14.52339       48.15692       78.89824
O         14.85865       48.88425       77.98262
O         15.16974       48.22921       80.07479
H         15.68390       45.97020       77.63912
H         12.67051       45.49981       77.69564
H         13.25195       46.65659       79.69804
H         12.44266       47.78706       78.56906
N         14.27761       46.36011       75.19229
C         14.20939       46.83342       73.81599
C         14.84622       48.18964       73.56052
O         14.91518       48.56256       72.39746
H         14.91545       45.57232       75.36626
H         13.15973       46.80491       73.45182
H         14.79227       46.11952       73.19282
N         15.35401       48.97278       74.55490
C         16.06961       50.22912       74.31177
C         17.45084       50.19140       74.95366
O         17.76450       49.24402       75.65914
C         15.25138       51.43497       74.84958
C         14.05005       51.72935       73.95379
O         14.78707       51.20002       76.15132
H         15.25106       48.66609       75.53005
H         16.24512       50.38212       73.22414
H         15.86998       52.36002       74.84069
H         15.57565       50.94969       76.69016
H         13.36555       50.85790       73.90083
H         13.49193       52.60249       74.35557
H         14.39876       51.98594       72.93011
N         18.34994       51.18963       74.70590
C         19.69817       51.23183       75.26952
C         19.90571       52.59039       75.93226
O         19.86669       53.59910       75.23982
C         20.74984       50.98994       74.14384
C         20.49777       49.62353       73.44888
C         22.18389       51.05488       74.71106
C         21.36069       49.39909       72.20546
H         18.08108       51.93853       74.04868
H         19.82634       50.42492       76.02657
H         20.62987       51.79466       73.38436
H         19.44586       49.57369       73.09800
H         20.65960       48.79305       74.17045
H         22.94159       50.94868       73.91036
H         22.37669       52.03653       75.18567
H         22.34331       50.25598       75.46702
H         21.17664       50.20772       71.46566
H         22.44003       49.36107       72.45028
H         21.08752       48.42888       71.73940
N         20.12051       52.69372       77.27399
C         20.33194       53.97145       77.95555
C         21.77413       54.43100       77.77861
O         22.55672       53.72349       77.16784
C         19.99300       53.85921       79.46975
C         18.56124       53.37878       79.70650
O         20.88118       52.98166       80.10475
H         20.11093       51.83548       77.83260
H         19.63663       54.72906       77.53039
H         20.08619       54.87465       79.91861
H         20.88409       53.21924       81.06914
H         18.43955       52.34672       79.32423
H         18.34231       53.36710       80.79535
H         17.83452       54.05021       79.20386
N         22.20702       55.60196       78.32176
C         23.60869       56.02233       78.30292
C         24.45177       55.03997       79.10560
O         25.45292       54.54888       78.60422
C         23.74896       57.44456       78.90494
C         25.20196       57.93462       78.89127
O         22.97822       58.34904       78.15399
H         21.51685       56.20186       78.79667
H         23.97182       56.07099       77.25126
H         23.41449       57.44117       79.97088
H         22.12362       58.48788       78.63949
H         25.25651       58.95883       79.31658
H         25.85287       57.27632       79.50470
H         25.59221       57.95863       77.85131
N         24.07530       54.71617       80.37401
C         24.81407       53.83521       81.27777
C         25.11723       52.50231       80.61576
O         26.26522       52.08068       80.61289
C         23.97808       53.66427       82.57206
C         24.70652       52.97711       83.73672
C         23.79784       52.98804       84.98469
C         24.45039       52.41461       86.25367
N         25.57073       53.23375       86.72296
H         23.19049       55.12425       80.71472
H         25.77398       54.32758       81.54981
H         23.03219       53.12485       82.34395
H         23.71439       54.68517       82.92811
H         25.63494       53.54805       83.94139
H         24.97425       51.93127       83.47115
H         22.88839       52.38841       84.76006
H         23.47336       54.02879       85.20785
H         24.78569       51.36965       86.07792
H         23.67496       52.39580       87.05279
H         25.91786       52.84663       87.63011
H         26.35825       53.21698       86.03808
H         25.25621       54.21909       86.88195
N         24.12664       51.81051       79.99443
C         24.32007       50.53192       79.31829
C         25.32565       50.67908       78.18326
O         26.34850       50.00904       78.21583
C         22.95308       49.97209       78.84346
C         22.03859       49.71965       80.06806
C         20.70471       49.13807       79.71686
O         20.38682       48.05048       80.16052
O         19.82540       49.79668       78.94683
H         23.19219       52.23458       79.99419
H         24.73164       49.79716       80.04665
H         23.11856       49.00740       78.31318
H         22.46815       50.67997       78.13462
H         21.84327       50.65236       80.62667
H         22.56361       49.01745       80.75209
N         25.12296       51.57159       77.17533
C         26.07784       51.82585       76.11277
H         26.99010       51.19898       76.19906
H         25.60385       51.63101       75.12851
H         26.38975       52.89227       76.15070
H         24.26183       52.12425       77.17231
Ca        18.12953       48.47174       78.33445
O         16.15184       51.38308       79.01210
H         16.01143       51.56114       79.97367
H         15.96550       52.25043       78.57120
O         17.93458       50.04420       81.34353
H         17.69872       50.90294       81.77526
H         17.08550       49.53693       81.32615

Ca 1.0



