%chk=holoCaM.loop1.water2.frame36.chk
%nprocshared=20
%mem=10GB
%nosave
#b3lyp/svp scf=(tight,noincore,xqc) Test 
#IOP(5/87=12) Density=Current Pop=(MK,readradii) iop(6/33=2) iop(6/42=6)

holoCaM.loop1.water2.frame36 

   0  1 
C         73.80745       11.01786       35.66403
C         73.01492       11.77730       36.68118
O         73.41300       11.83117       37.83622
H         74.71757       10.57811       36.12345
H         73.18198       10.20121       35.24681
H         74.11117       11.70232       34.84420
N         71.87133       12.41146       36.30714
C         71.05394       13.17506       37.23933
C         70.45804       12.22468       38.27381
O         69.61193       11.41545       37.91810
C         69.98108       13.93643       36.43434
C         69.13909       14.88029       37.22642
O         68.31168       15.55052       36.63973
O         69.29014       15.02392       38.55447
H         71.59632       12.36602       35.31246
H         71.71163       13.92898       37.72848
H         69.31582       13.21342       35.91223
H         70.50138       14.54572       35.66122
N         70.94364       12.19376       39.55151
C         70.55355       11.16977       40.52015
C         69.10977       11.27675       40.99300
O         68.62235       10.30564       41.55425
C         71.54426       11.12138       41.71370
C         71.39718       12.27422       42.72728
C         72.57733       12.28687       43.71703
C         72.47433       13.39571       44.77982
N         71.43032       13.11524       45.76738
H         71.72534       12.81784       39.78377
H         70.67009       10.19981       39.98650
H         72.57291       11.11573       41.28832
H         71.40889       10.17041       42.27299
H         70.42925       12.15786       43.25696
H         71.38552       13.24482       42.20781
H         73.50401       12.46769       43.13104
H         72.68462       11.30385       44.22290
H         72.29738       14.38235       44.29582
H         73.44830       13.45409       45.31517
H         70.48750       13.07704       45.32145
H         71.63367       12.20739       46.24678
H         71.42868       13.87425       46.48655
N         68.38230       12.42559       40.85183
C         66.99116       12.55388       41.29243
C         66.04756       12.96859       40.16197
O         64.85556       13.07298       40.41819
C         66.88737       13.50046       42.51318
C         67.30852       14.92882       42.29630
O         67.21257       15.80201       43.31675
O         67.73539       15.31164       41.22158
H         68.84392       13.25112       40.44794
H         66.61680       11.57071       41.65247
H         67.51026       13.08392       43.33444
H         65.83210       13.50766       42.86393
N         66.48275       13.18021       38.88388
C         65.58803       13.48073       37.77399
C         64.92154       14.84650       37.81532
O         64.14452       15.11717       36.91033
H         67.47530       13.04824       38.65310
H         64.80955       12.68943       37.72101
H         66.17196       13.44106       36.82827
N         65.17084       15.76923       38.79054
C         64.53303       17.09066       38.81954
C         64.87090       17.97762       37.61538
O         64.24363       19.01857       37.47870
C         64.85511       17.82833       40.14150
C         66.32554       18.03245       40.40057
O         67.25059       17.57847       39.53513
O         66.68491       18.56453       41.43782
H         65.81134       15.51680       39.55192
H         63.43274       16.92586       38.80019
H         64.45264       17.22263       40.98214
H         64.34150       18.81401       40.15460
N         65.82680       17.63695       36.70444
C         66.10271       18.38661       35.48837
C         67.50781       18.94796       35.41769
O         67.83803       19.48810       34.37020
H         66.36887       16.78462       36.84971
H         65.39724       19.23541       35.35757
H         65.95514       17.69572       34.63099
N         68.36751       18.93486       36.48065
C         69.67779       19.58482       36.44126
C         70.79375       18.69842       36.96915
O         70.54181       17.63917       37.52357
C         69.63563       20.89658       37.27053
C         68.71297       21.94987       36.63975
O         69.27515       20.64137       38.60831
H         68.05222       18.53750       37.37478
H         69.94724       19.84554       35.39386
H         70.64665       21.35710       37.28087
H         68.29490       20.48339       38.64201
H         69.06581       22.19249       35.61427
H         67.66541       21.58772       36.58214
H         68.73491       22.87954       37.24657
N         72.08264       19.11355       36.82064
C         73.25187       18.46710       37.40206
C         73.98304       19.52003       38.22919
O         74.30707       20.58294       37.71661
C         74.12195       17.80708       36.29081
C         73.32849       16.59430       35.71628
C         75.48574       17.34361       36.84431
C         74.03992       15.80901       34.61549
H         72.25230       19.96921       36.26803
H         72.95401       17.64127       38.08152
H         74.32580       18.55378       35.49251
H         72.36336       16.95236       35.30011
H         73.10054       15.87801       36.53883
H         76.04984       18.19342       37.28105
H         75.35507       16.56191       37.61368
H         76.12539       16.93507       36.03678
H         73.37516       14.98686       34.27234
H         74.27133       16.46950       33.75567
H         74.97030       15.33651       34.99176
N         74.27685       19.26616       39.53170
C         74.90529       20.19346       40.45996
C         76.31713       19.71954       40.75293
O         76.77995       18.78954       40.10900
C         74.05535       20.25495       41.76540
C         72.62740       20.75977       41.50553
O         74.05808       19.00833       42.42904
H         74.07033       18.33592       39.90006
H         74.97433       21.21659       40.03027
H         74.49786       20.99044       42.46696
H         73.25452       18.49028       42.16698
H         72.65313       21.77668       41.06282
H         72.08655       20.08058       40.81268
H         72.07358       20.80849       42.46774
N         77.06401       20.30879       41.72461
C         78.37158       19.80715       42.13875
C         78.25181       18.38084       42.66938
O         79.06909       17.54559       42.31160
C         79.00840       20.71856       43.21583
C         79.27096       22.13259       42.67857
O         78.18483       20.78469       44.35200
H         76.66658       21.11692       42.22327
H         79.06739       19.80960       41.26859
H         79.99260       20.26667       43.48641
H         78.76600       21.04542       45.11350
H         78.32740       22.64609       42.40110
H         79.77831       22.74126       43.45580
H         79.92810       22.08781       41.78406
N         77.23939       18.03342       43.51866
C         77.07057       16.68648       44.07529
C         76.79409       15.61925       43.00869
O         76.81056       14.44541       43.35337
C         75.89290       16.66105       45.08539
C         76.02799       17.63443       46.27838
C         77.17404       17.32796       47.25624
C         76.97059       16.00236       48.00811
N         78.01040       15.80928       49.01792
H         76.56771       18.76851       43.77851
H         78.01286       16.41297       44.59722
H         75.74103       15.63222       45.47387
H         74.96843       16.93609       44.53016
H         75.07506       17.62023       46.85073
H         76.15596       18.67106       45.90833
H         77.18905       18.14659       48.00872
H         78.15227       17.33463       46.73090
H         76.99044       15.14764       47.29934
H         75.97895       16.01839       48.51388
H         77.99009       16.59395       49.70970
H         77.83193       14.91215       49.52463
H         78.95047       15.76324       48.56259
N         76.49807       15.94318       41.71648
C         76.19455       14.97426       40.66456
C         77.19030       15.05889       39.50625
O         77.09202       14.23711       38.60486
C         74.77782       15.26400       40.11837
C         73.67388       15.12775       41.17566
C         72.36166       15.67808       40.67465
O         72.24287       16.98007       40.38270
O         71.37685       14.97299       40.57969
H         76.43369       16.93089       41.46557
H         76.24078       13.93663       41.06193
H         74.53531       14.59318       39.26378
H         74.79032       16.30207       39.74665
H         73.93481       15.70017       42.08979
H         73.58141       14.05543       41.44089
N         78.15563       16.02105       39.43340
C         79.07636       16.11561       38.32106
H         79.70851       15.20483       38.27153
H         78.51567       16.23703       37.36978
H         79.73696       17.00053       38.45212
H         78.24364       16.73100       40.16556
Ca        69.42951       17.55233       40.08354
O         70.37123       16.40225       42.98935
H         71.21471       16.76032       43.36421
H         69.94847       15.91920       43.74231
O         69.84463       19.46688       42.05580
H         69.57464       19.38710       43.00347
H         69.05306       19.84060       41.59376

Ca 1.0



