%chk=holoCaM.loop4.water3.frame416.chk
%nprocshared=20
%mem=10GB
%nosave
#b3lyp/svp scf=(tight,noincore,xqc) Test 
#IOP(5/87=12) Density=Current Pop=(MK,readradii) iop(6/33=2) iop(6/42=6)

holoCaM.loop4.water3.frame416 

   -3  1 
C         -6.98508       78.87336       53.36370
C         -7.10438       79.05981       54.84303
O         -7.42389       80.16147       55.26834
H         -7.23949       79.81695       52.83243
H         -5.94961       78.57814       53.10290
H         -7.69543       78.08584       53.03465
N         -6.91627       78.00765       55.69325
C         -7.16686       78.12067       57.12486
C         -6.14323       77.35157       57.94171
O         -5.67269       76.31245       57.49466
C         -8.58312       77.59076       57.41443
C         -9.21304       78.16912       58.65621
O        -10.36148       77.86522       58.92482
O         -8.61094       79.16572       59.34084
H         -6.72990       77.07736       55.28710
H         -7.13303       79.19732       57.40268
H         -8.58916       76.47865       57.41168
H         -9.25266       77.92867       56.59275
N         -5.80975       77.77388       59.19005
C         -4.85502       77.10023       60.06223
C         -5.55826       76.56786       61.31835
O         -5.10762       75.56567       61.84977
C         -3.70190       78.09194       60.43310
C         -3.10094       78.74663       59.15746
C         -2.59406       77.39252       61.24962
C         -2.13597       79.89996       59.45126
H         -6.23701       78.64344       59.52852
H         -4.40155       76.22995       59.53487
H         -4.14508       78.90258       61.05314
H         -3.91836       79.19171       58.55969
H         -2.59962       77.98205       58.52542
H         -2.12012       76.58558       60.64916
H         -1.80687       78.10881       61.55869
H         -2.99513       76.95448       62.18466
H         -1.22324       79.55340       59.97389
H         -1.82037       80.36914       58.49509
H         -2.64256       80.67558       60.06564
N         -6.60825       77.23949       61.89260
C         -7.18386       76.88443       63.19334
C         -8.70619       76.70704       63.20760
O         -9.21829       76.38079       64.27326
C         -6.75821       77.95115       64.23045
C         -7.20054       79.36514       63.94218
O         -7.83842       79.64329       62.94229
O         -6.86927       80.34667       64.80034
H         -6.95086       78.08990       61.44150
H         -6.75783       75.91963       63.54429
H         -5.64891       77.95462       64.28816
H         -7.14915       77.66155       65.22942
N         -9.50499       76.87630       62.11453
C        -10.94970       76.65564       62.16846
C        -11.72724       77.66236       63.01294
O        -12.90978       77.43322       63.22429
H         -9.08236       77.10838       61.20588
H        -11.12788       75.63244       62.56661
H        -11.37770       76.68898       61.14398
N        -11.15861       78.80332       63.50467
C        -11.86498       79.78305       64.34286
C        -13.01879       80.51625       63.64236
O        -13.65121       81.34471       64.28416
C        -10.86175       80.82394       64.90052
C        -10.37811       81.80033       63.86195
O         -9.84595       81.40891       62.83924
O        -10.56139       83.12092       64.04764
H        -10.16534       78.96283       63.31051
H        -12.27045       79.23302       65.22049
H         -9.99552       80.29201       65.35053
H        -11.35127       81.40709       65.71072
N        -13.34957       80.28107       62.34169
C        -14.43035       80.95752       61.64493
C        -14.03925       82.30070       61.05586
O        -14.86344       82.85546       60.34302
H        -12.85535       79.55483       61.81631
H        -15.33562       81.02660       62.28696
H        -14.70861       80.32615       60.77280
N        -12.81857       82.88102       61.26801
C        -12.39742       84.11585       60.60766
C        -11.06936       83.89272       59.83933
O        -11.19295       82.71364       59.09612
C        -12.28597       85.26317       61.63712
C        -13.68078       85.71557       62.09675
C        -13.61146       86.95447       62.95256
N        -14.15873       86.97705       64.18843
O        -13.07921       87.96285       62.51080
H        -12.14677       82.43298       61.90179
H        -13.14371       84.41826       59.83871
H        -11.81439       86.14807       61.17257
H        -11.64626       84.96585       62.49478
H        -14.19571       84.88766       62.62912
H        -14.28171       85.97878       61.19859
H        -14.63348       86.14783       64.57232
H        -14.12325       87.83676       64.75621
N        -10.86384       84.99945       58.88317
C         -9.56405       85.03562       58.19510
C         -8.56264       85.88702       58.97693
O         -8.78172       87.08124       59.12990
C         -9.79574       85.62569       56.77269
C         -8.49527       85.77688       55.97727
C        -10.77319       84.75427       55.96586
H        -11.14565       85.95040       59.20378
H         -9.16876       84.00102       58.07531
H        -10.24618       86.63901       56.87546
H         -8.00012       84.79314       55.83857
H         -8.71901       86.21579       54.98221
H         -7.80146       86.47157       56.48921
H        -11.75198       84.66959       56.48236
H        -10.95942       85.20908       54.96899
H        -10.35582       83.73587       55.81733
N         -7.42762       85.32992       59.48559
C         -6.37597       86.09606       60.16049
C         -5.48652       86.77991       59.12249
O         -5.70221       86.56978       57.94039
C         -5.56535       85.11449       61.04362
C         -4.50318       85.73648       61.91079
N         -4.82299       86.66447       62.84204
O         -3.34138       85.37949       61.78815
H         -7.30230       84.31399       59.38001
H         -6.84851       86.85109       60.82569
H         -5.10563       84.33728       60.39430
H         -6.27386       84.61666       61.73138
H         -5.79802       86.96985       62.97144
H         -4.09117       87.07696       63.43911
N         -4.46385       87.61236       59.47609
C         -3.53773       88.17478       58.49333
C         -2.72534       87.07397       57.81194
O         -2.62631       87.07539       56.59315
C         -2.60648       89.27586       59.06186
C         -1.51996       88.85072       60.02832
C         -1.79745       88.53987       61.37120
C         -0.18434       88.81438       59.58640
C         -0.76266       88.19160       62.24599
C          0.84572       88.46268       60.46028
C          0.56015       88.14939       61.79453
O          1.54686       87.81351       62.64943
H         -4.35196       87.85581       60.46401
H         -4.13957       88.70918       57.72265
H         -3.20113       90.10015       59.51194
H         -2.10978       89.71699       58.16842
H         -2.80130       88.58900       61.76086
H          0.06382       89.05626       58.56024
H         -0.98909       87.96294       63.27969
H          1.86576       88.43709       60.09801
H          2.47411       87.77604       62.37369
N         -2.16020       86.07147       58.55047
C         -1.38708       84.95053       57.99417
C         -2.18760       84.04912       57.04893
O         -1.60711       83.10593       56.52524
C         -0.86472       84.04235       59.14413
C          0.07334       84.71436       60.16294
C          1.40291       85.09964       59.57557
O          2.53000       84.53235       60.04636
O          1.47796       85.93669       58.69161
H         -2.29483       86.11294       59.56884
H         -0.53271       85.35874       57.41779
H         -0.32246       83.16443       58.72626
H         -1.74985       83.65309       59.69684
H          0.26081       83.97700       60.97400
H         -0.40425       85.59856       60.62872
N         -3.50814       84.24756       56.79471
C         -4.33743       83.36185       55.99399
C         -4.77380       84.07328       54.72766
O         -4.54518       83.53875       53.65216
C         -5.52506       82.89663       56.85809
C         -5.00784       82.11977       58.08544
C         -6.08464       81.65056       59.01510
O         -5.73936       80.99584       60.13829
O         -7.26111       81.86731       58.78301
H         -3.99063       85.03563       57.22879
H         -3.77801       82.45031       55.68190
H         -6.18977       82.23984       56.25928
H         -6.11301       83.77818       57.19601
H         -4.32747       82.76440       58.67995
H         -4.43729       81.23814       57.73231
N         -5.35785       85.30390       54.77138
C         -5.73051       86.05656       53.59027
H         -6.80664       86.31262       53.63470
H         -5.14367       86.99896       53.55944
H         -5.54418       85.49592       52.65130
H         -5.51549       85.75569       55.67788
Ca        -9.79956       81.03949       59.83477
O        -12.36208       79.95721       59.40630
H        -12.48115       80.07947       58.43311
H        -12.50390       78.99030       59.56157
O         -9.91836       80.75795       56.84199
H        -10.61092       81.46362       56.82702
H         -9.08979       81.23366       57.09847
O         -7.39784       82.41119       62.02423
H         -7.83029       83.05613       62.63826
H         -6.55966       82.15661       62.48530

Ca 1.0



