%chk=holoCaM-CaMKII.loop4.water1.frame341.chk
%nprocshared=20
%mem=10GB
%nosave
#b3lyp/svp scf=(tight,noincore,xqc) Test 
#IOP(5/87=12) Density=Current Pop=(MK,readradii) iop(6/33=2) iop(6/42=6)

holoCaM-CaMKII.loop4.water1.frame341 

   -3  1 
C         15.37146       62.90079       54.33419
C         14.24803       62.44250       53.44968
O         14.23722       61.28896       53.05555
H         16.33519       62.79618       53.79317
H         15.25119       63.96686       54.62404
H         15.39671       62.28614       55.25709
N         13.25980       63.30593       53.09876
C         12.14269       62.96822       52.22115
C         12.64039       62.58866       50.82678
O         13.37578       63.36000       50.22710
C         11.17826       64.16658       52.20091
C         10.00998       63.97105       51.29772
O          9.77904       64.80537       50.44381
O          9.19724       62.90911       51.43644
H         13.30683       64.26278       53.48389
H         11.57756       62.11861       52.65305
H         11.71972       65.08862       51.89386
H         10.79088       64.31634       53.23292
N         12.26017       61.40349       50.25455
C         12.74932       60.91189       48.96206
C         11.66142       60.95482       47.88003
O         12.02014       60.79807       46.72062
C         13.37078       59.48104       49.18126
C         14.66719       59.61065       50.02529
C         13.65929       58.70967       47.87740
C         15.24720       58.28456       50.52733
H         11.59609       60.80431       50.76800
H         13.53901       61.59326       48.57396
H         12.62492       58.87541       49.74458
H         14.45158       60.21054       50.92387
H         15.44221       60.14797       49.43552
H         14.05437       57.69630       48.09121
H         12.72227       58.53201       47.31137
H         14.38579       59.25610       47.24143
H         14.50844       57.75712       51.16259
H         15.55905       57.62039       49.69817
H         16.14761       58.49105       51.14452
N         10.33889       61.17975       48.14638
C          9.31856       61.25540       47.09261
C          8.46602       62.52689       47.17227
O          7.45329       62.60247       46.49015
C          8.48186       59.95907       47.04946
C          7.67110       59.64180       48.27081
O          6.98105       58.63541       48.27709
O          7.68861       60.43682       49.35426
H         10.03053       61.26384       49.12415
H          9.79345       61.28252       46.08704
H          9.17540       59.10848       46.86519
H          7.78931       60.01627       46.18093
N          8.87229       63.60881       47.89501
C          8.18282       64.89634       47.89689
C          6.92320       64.97861       48.74796
O          6.38926       66.07466       48.84812
H          9.78554       63.56429       48.36547
H          7.96991       65.21268       46.85319
H          8.87917       65.65365       48.31455
N          6.38145       63.90526       49.39402
C          5.16751       64.00752       50.21425
C          5.38124       64.70270       51.56722
O          4.41138       64.84339       52.30026
C          4.50730       62.62048       50.39281
C          5.33977       61.59004       51.09772
O          4.89274       60.46611       51.25459
O          6.57477       61.87603       51.54015
H          6.80470       62.98016       49.24750
H          4.41520       64.60137       49.64780
H          4.26072       62.22377       49.38455
H          3.55337       62.74192       50.95180
N          6.59418       65.18952       51.96143
C          6.80384       65.90886       53.21062
C          6.79617       65.04939       54.46116
O          7.00757       65.61755       55.52351
H          7.39835       65.12164       51.32880
H          6.05632       66.72758       53.29961
H          7.81045       66.38037       53.17597
N          6.60284       63.69673       54.43581
C          6.69517       62.85454       55.63044
C          7.81393       61.79199       55.47232
O          8.68703       62.17368       54.44736
C          5.31408       62.24214       55.96163
C          4.69428       61.33998       54.87224
C          5.33871       59.98522       54.78800
N          5.25988       59.13283       55.83354
O          5.90014       59.63476       53.76257
H          6.42215       63.23589       53.53956
H          6.96835       63.48860       56.50220
H          4.62309       63.10135       56.09987
H          5.35438       61.69616       56.92857
H          4.71423       61.85571       53.89159
H          3.62559       61.16296       55.11730
H          4.76158       59.39414       56.69608
H          5.67416       58.19755       55.77077
N          8.57080       61.63121       56.73370
C          9.73037       60.70909       56.66030
C          9.41438       59.36748       57.31822
O          9.22578       59.31752       58.52579
C         10.97866       61.38495       57.31067
C         12.21894       60.47283       57.30821
C         11.34156       62.69029       56.58068
H          7.94779       61.43085       57.54985
H          9.99207       60.51883       55.60448
H         10.73994       61.63021       58.36922
H         13.07442       60.98423       57.80055
H         12.03013       59.54221       57.87645
H         12.51884       60.21748       56.27204
H         10.49695       63.40872       56.60475
H         12.21344       63.17580       57.07118
H         11.60734       62.48458       55.52058
N          9.35371       58.23168       56.56492
C          9.14096       56.89145       57.11929
C         10.35681       56.40498       57.88967
O         11.35445       57.10192       57.96112
C          8.87692       55.89598       55.96345
C          7.53897       56.15075       55.33366
N          7.44161       56.59380       54.06189
O          6.52587       55.94350       55.98517
H          9.45650       58.32875       55.54287
H          8.26200       56.89573       57.80221
H          8.85605       54.84180       56.30862
H          9.70094       55.98067       55.22135
H          8.28804       56.78002       53.50618
H          6.51683       56.76602       53.64054
N         10.33816       55.17471       58.47345
C         11.49465       54.54414       59.10269
C         12.58230       54.29127       58.06278
O         13.72276       54.67043       58.28072
C         11.05569       53.20487       59.73739
C         12.14963       52.53202       60.53095
C         12.68746       53.15724       61.66938
C         12.62179       51.26225       60.15939
C         13.67799       52.52220       62.42343
C         13.61378       50.62918       60.91485
C         14.14328       51.25701       62.05187
O         15.09270       50.65421       62.79549
H          9.45408       54.64264       58.44339
H         11.87446       55.20300       59.91463
H         10.68221       52.52937       58.93603
H         10.20856       53.39082       60.43319
H         12.33295       54.13141       61.98150
H         12.22053       50.75905       59.28849
H         14.07912       53.01217       63.30183
H         13.96583       49.64916       60.61861
H         15.43445       49.77490       62.57950
N         12.26713       53.66656       56.88914
C         13.21462       53.37747       55.81042
C         13.94597       54.62774       55.36738
O         15.16967       54.63700       55.38353
C         12.44700       52.74448       54.62297
C         13.32795       52.45426       53.39802
C         12.52665       51.76974       52.32706
O         12.37816       52.29606       51.23561
O         11.97271       50.56524       52.56549
H         11.28038       53.40199       56.74644
H         13.96823       52.64212       56.17046
H         11.62334       53.42281       54.30446
H         11.99290       51.79445       54.98125
H         14.17867       51.80029       53.68164
H         13.73236       53.41044       52.99697
N         13.25614       55.72637       54.96969
C         13.90340       56.96192       54.54342
C         14.81659       57.50684       55.63278
O         15.90893       57.95842       55.32126
C         12.86333       58.03604       54.23175
C         11.88330       57.71368       53.08358
C         10.93283       58.86363       52.93100
O          9.82073       58.78073       52.18744
O         11.10839       59.88383       53.57657
H         12.22686       55.68263       55.00787
H         14.49720       56.78937       53.61879
H         13.40745       58.96987       53.96843
H         12.26528       58.21507       55.15443
H         11.29002       56.81315       53.33982
H         12.40588       57.53234       52.12314
N         14.42436       57.48138       56.93624
C         15.21212       57.98934       58.03881
H         16.14923       58.47555       57.69965
H         14.61050       58.73337       58.60247
H         15.46877       57.15237       58.72242
H         13.52656       57.04994       57.16816
Ca         8.55293       60.46614       52.93944
O          7.28839       57.44409       51.02907
H          8.06247       57.75578       50.49795
H          7.49446       56.49505       51.21981

Ca 1.0



