%chk=holoCaM.loop4.water3.frame391.chk
%nprocshared=20
%mem=10GB
%nosave
#b3lyp/svp scf=(tight,noincore,xqc) Test 
#IOP(5/87=12) Density=Current Pop=(MK,readradii) iop(6/33=2) iop(6/42=6)

holoCaM.loop4.water3.frame391 

   -3  1 
C         83.05458       49.81967       78.85981
C         82.62645       48.96049       80.01127
O         81.71084       49.36117       80.71596
H         83.88334       49.35281       78.28991
H         82.19108       49.95810       78.17234
H         83.37859       50.81385       79.23049
N         83.20730       47.74203       80.23619
C         82.73019       46.81744       81.25729
C         83.86504       46.33612       82.17105
O         84.84754       45.82092       81.65615
C         82.02930       45.63779       80.56338
C         81.15653       44.85514       81.50491
O         80.54834       43.87943       81.09791
O         80.96542       45.27304       82.77000
H         83.95391       47.42113       79.60175
H         81.94802       47.31090       81.83564
H         82.78300       44.98396       80.07690
H         81.34517       46.03184       79.77962
N         83.78276       46.44118       83.53530
C         84.81717       45.99763       84.47364
C         84.32775       44.87704       85.40760
O         85.11435       44.43001       86.22937
C         85.34553       47.20970       85.31467
C         84.26500       47.79812       86.27061
C         85.92344       48.28749       84.37942
C         84.79633       48.88654       87.20941
H         82.94123       46.84693       83.94552
H         85.68112       45.58070       83.91108
H         86.18210       46.83274       85.94529
H         83.87456       46.98682       86.92096
H         83.41490       48.21719       85.69549
H         86.69623       47.84355       83.71738
H         85.12439       48.73406       83.75000
H         86.41598       49.09765       84.95365
H         85.63699       48.49431       87.82069
H         85.13344       49.78121       86.64871
H         83.98511       49.21131       87.89567
N         83.05021       44.38957       85.35888
C         82.50535       43.45216       86.34784
C         81.35052       42.55637       85.82658
O         80.87827       41.73563       86.60247
C         82.10197       44.21925       87.63664
C         81.10946       45.32914       87.41480
O         80.82740       45.75873       86.17301
O         80.56459       45.85649       88.37116
H         82.40890       44.80814       84.68631
H         83.30166       42.73244       86.63974
H         82.99372       44.66336       88.12835
H         81.66485       43.48529       88.34886
N         80.89069       42.58994       84.53895
C         79.91705       41.65780       83.96500
C         78.46835       41.72624       84.45289
O         77.67198       40.95349       83.93880
H         81.33017       43.22395       83.87071
H         80.29456       40.62300       84.11323
H         79.88139       41.83937       82.86873
N         78.04154       42.57134       85.43143
C         76.67040       42.56100       85.97949
C         75.56993       43.14652       85.07313
O         74.43067       43.17813       85.51912
C         76.65820       43.28925       87.34489
C         77.09475       44.72237       87.26065
O         77.36823       45.27040       86.06418
O         77.27607       45.36059       88.28274
H         78.74880       43.17045       85.87784
H         76.39540       41.50639       86.20691
H         77.37564       42.75923       88.00889
H         75.65366       43.23080       87.81679
N         75.79932       43.61361       83.81252
C         74.74377       44.16390       82.96025
C         74.25734       45.56963       83.32849
O         73.37628       46.05889       82.63542
H         76.73382       43.50737       83.40468
H         73.88732       43.45381       82.93694
H         75.13420       44.23675       81.92228
N         74.78617       46.29191       84.35954
C         74.39597       47.65963       84.72230
C         75.59102       48.61127       84.62733
O         76.66124       48.17200       84.22595
C         73.84124       47.67838       86.15933
C         72.58225       46.81754       86.32300
C         71.94902       46.98724       87.68603
N         70.80610       46.33015       87.98286
O         72.44878       47.72820       88.52168
H         75.51329       45.85928       84.92458
H         73.60718       48.04375       84.03831
H         73.55519       48.71902       86.41375
H         74.62193       47.34132       86.87660
H         72.83569       45.74714       86.16361
H         71.83424       47.12592       85.56111
H         70.36432       45.70685       87.29191
H         70.35795       46.45293       88.90305
N         75.48318       49.93393       84.98692
C         76.58859       50.88673       84.89270
C         77.00290       51.40034       86.27695
O         76.27640       52.18344       86.87343
C         76.20767       52.06137       83.94145
C         77.33065       53.10582       83.82184
C         75.86170       51.54678       82.53558
H         74.58127       50.29545       85.32889
H         77.45789       50.38666       84.44579
H         75.30949       52.57383       84.35238
H         77.01491       53.93643       83.15522
H         77.56044       53.55477       84.80758
H         78.24993       52.64795       83.40363
H         76.73935       51.04230       82.07872
H         75.01399       50.83185       82.57150
H         75.56176       52.39404       81.88190
N         78.19303       51.01054       86.82832
C         78.77533       51.56044       88.05270
C         79.26640       52.98373       87.79743
O         79.29739       53.41258       86.65723
C         79.96520       50.65238       88.48901
C         80.65230       51.02108       89.78020
N         79.97018       51.06303       90.94708
O         81.85165       51.25235       89.77679
H         78.71804       50.27294       86.35766
H         77.99630       51.54786       88.84552
H         80.72055       50.63319       87.67195
H         79.59474       49.61889       88.62131
H         78.96202       50.85740       90.97821
H         80.45638       51.30144       91.82415
N         79.66066       53.77939       88.82601
C         80.18203       55.13836       88.65603
C         81.51785       55.17066       87.91913
O         81.71316       56.06371       87.10626
C         80.21264       55.88243       90.01170
C         80.92562       55.14757       91.12559
C         80.16664       54.57170       92.16177
C         82.32273       55.02094       91.15347
C         80.78867       53.86571       93.19074
C         82.94530       54.31896       92.19255
C         82.18211       53.73449       93.20874
O         82.79561       53.05060       94.19501
H         79.54458       53.40813       89.77697
H         79.46130       55.72286       88.03933
H         79.14379       55.99155       90.30183
H         80.61272       56.91344       89.90070
H         79.08630       54.65170       92.16472
H         82.93066       55.46754       90.37870
H         80.18420       53.41778       93.96935
H         84.02263       54.22459       92.20860
H         82.29941       52.62588       94.90959
N         82.46095       54.20538       88.10875
C         83.72210       54.14605       87.36680
C         83.45296       54.07398       85.87953
O         84.03662       54.83596       85.12134
C         84.54581       52.89538       87.77416
C         85.06605       52.94711       89.21941
C         86.02920       54.08493       89.42111
O         85.75841       55.05248       90.31659
O         87.06268       54.13709       88.77290
H         82.24999       53.45733       88.78011
H         84.33593       55.05099       87.56882
H         85.42855       52.79354       87.10268
H         83.92427       51.98180       87.64274
H         85.59796       51.99821       89.44765
H         84.21634       53.03483       89.92493
N         82.56924       53.16150       85.40204
C         82.29516       52.96388       83.98494
C         81.73554       54.23361       83.36650
O         82.31764       54.74325       82.41910
C         81.31425       51.79045       83.77945
C         81.82041       50.48365       84.41634
C         80.86686       49.36761       84.15865
O         81.25741       48.32726       83.69491
O         79.57327       49.48159       84.44626
H         82.07744       52.58521       86.09740
H         83.24484       52.69057       83.47132
H         81.16895       51.63513       82.68700
H         80.33324       52.03939       84.23614
H         81.89345       50.57925       85.51502
H         82.82860       50.22062       84.02679
N         80.61169       54.81083       83.87129
C         80.04290       56.02646       83.33475
H         79.14756       56.31433       83.92779
H         80.78381       56.85165       83.39262
H         79.73442       55.86894       82.28033
H         80.14677       54.38148       84.67725
Ca        78.92885       46.81122       85.76352
O         78.54014       48.23996       81.83734
H         78.05034       49.03010       81.50090
H         79.49008       48.50983       81.80989
O         77.54608       48.27573       88.05388
H         77.02347       47.87629       87.31512
H         78.34636       47.69831       88.14110
O         77.99911       45.62675       82.76532
H         78.50363       44.79531       82.94747
H         77.50740       45.43896       81.92671

Ca 1.0



