%chk=holoCaM.loop1.water2.frame337.chk
%nprocshared=20
%mem=10GB
%nosave
#b3lyp/svp scf=(tight,noincore,xqc) Test 
#IOP(5/87=12) Density=Current Pop=(MK,readradii) iop(6/33=2) iop(6/42=6)

holoCaM.loop1.water2.frame337 

   0  1 
C         -8.53656       37.55484        8.61421
C         -8.39580       38.47268        7.43924
O         -8.11825       39.64701        7.62490
H         -9.56278       37.13183        8.63182
H         -7.79986       36.72847        8.53169
H         -8.35861       38.10261        9.56415
N         -8.55165       37.99270        6.17773
C         -8.43345       38.84268        5.00136
C         -9.62980       39.79714        4.94826
O        -10.74651       39.30493        5.04317
C         -8.37311       37.96693        3.72915
C         -7.86344       38.74574        2.55201
O         -7.34582       39.97085        2.73987
O         -7.83838       38.24113        1.44529
H         -8.73113       36.98308        6.05705
H         -7.46538       39.38384        5.07887
H         -9.37644       37.53440        3.52195
H         -7.65608       37.12901        3.87435
N         -9.49126       41.15487        4.81530
C        -10.62370       42.07952        4.95674
C        -11.06564       42.76593        3.66304
O        -12.10811       43.40590        3.70353
C        -10.30018       43.15553        6.01907
C         -9.83803       42.61462        7.38340
C        -10.88398       41.73347        8.07881
C        -10.40130       41.30691        9.47341
N        -11.37970       40.43634       10.12260
H         -8.55402       41.54771        4.66537
H        -11.51877       41.51272        5.29081
H        -11.19290       43.80034        6.17603
H         -9.48100       43.79894        5.62702
H         -9.61817       43.49074        8.03199
H         -8.89366       42.04662        7.25605
H        -11.07024       40.82478        7.46873
H        -11.83466       42.29987        8.18353
H        -10.23450       42.20938       10.10223
H         -9.43623       40.76573        9.39460
H        -12.28817       40.94081       10.23910
H        -11.52445       39.57178        9.55151
H        -11.01977       40.16092       11.06490
N        -10.37388       42.67906        2.48911
C        -10.86919       43.24312        1.22130
C        -11.07048       42.14771        0.16864
O        -11.48403       42.46744       -0.93663
C         -9.92535       44.37369        0.72617
C         -8.54750       43.89200        0.37496
O         -8.33537       42.57263        0.27822
O         -7.63926       44.68347        0.18576
H         -9.47243       42.18122        2.48738
H        -11.86142       43.72076        1.37326
H         -9.84503       45.11431        1.55184
H        -10.35303       44.89467       -0.15803
N        -10.81850       40.83310        0.45121
C        -11.00187       39.73405       -0.47894
C         -9.99102       39.73089       -1.61157
O        -10.04791       40.59959       -2.46746
H        -10.52010       40.55954        1.39710
H        -12.03875       39.72896       -0.87663
H        -10.88060       38.79286        0.10064
N         -9.05686       38.73289       -1.67960
C         -8.11320       38.52183       -2.78691
C         -7.18852       37.29498       -2.61416
O         -6.59986       36.90802       -3.61439
C         -7.27844       39.77718       -3.15119
C         -6.55435       40.39353       -1.99394
O         -5.66186       39.68647       -1.28625
O         -6.74955       41.56420       -1.71431
H         -9.08637       38.05143       -0.91723
H         -8.73413       38.29057       -3.68081
H         -7.93721       40.55070       -3.59501
H         -6.54233       39.51547       -3.94152
N         -6.99518       36.63123       -1.42963
C         -6.19841       35.41776       -1.29635
C         -4.99269       35.57856       -0.38722
O         -4.33457       34.57757       -0.13994
H         -7.42469       36.95696       -0.56259
H         -5.83208       35.05281       -2.27980
H         -6.85829       34.62878       -0.87504
N         -4.59643       36.79356        0.09449
C         -3.38237       36.99468        0.88758
C         -3.65300       37.82793        2.13341
O         -4.75183       38.34110        2.29535
C         -2.30076       37.67845        0.01281
C         -1.76240       36.73946       -1.07689
O         -2.78750       38.87074       -0.55176
H         -5.13114       37.62765       -0.17127
H         -2.98154       36.01813        1.23823
H         -1.42353       37.93685        0.64248
H         -3.33216       38.63855       -1.34962
H         -0.98449       37.26608       -1.66936
H         -1.30226       35.84413       -0.60794
H         -2.57056       36.41144       -1.76383
N         -2.67436       37.97531        3.07922
C         -2.83142       38.75954        4.30187
C         -1.70788       39.79555        4.38973
O         -0.55249       39.42243        4.54058
C         -2.88751       37.80607        5.53828
C         -4.15862       36.91322        5.43231
C         -2.88535       38.59293        6.86229
C         -4.32857       35.89767        6.56355
H         -1.78022       37.47830        2.94344
H         -3.79485       39.30439        4.27898
H         -1.98031       37.16107        5.53357
H         -4.12146       36.33590        4.48452
H         -5.06615       37.55764        5.40773
H         -2.85530       37.90831        7.73334
H         -1.97649       39.22113        6.94557
H         -3.78527       39.23281        6.93948
H         -5.23965       35.29098        6.37287
H         -3.45134       35.21975        6.61137
H         -4.47075       36.39832        7.54256
N         -1.99412       41.12759        4.28414
C         -1.00007       42.20546        4.38375
C         -0.53269       42.39544        5.82214
O         -0.97727       41.67321        6.69634
C         -1.59967       43.55684        3.88864
C         -2.01973       43.51485        2.41606
O         -2.65485       43.98312        4.71587
H         -2.97123       41.38045        4.08984
H         -0.13245       41.96996        3.72837
H         -0.82135       44.34484        3.92968
H         -3.48478       43.54168        4.40860
H         -1.15381       43.24227        1.77694
H         -2.83089       42.77877        2.26468
H         -2.38724       44.51594        2.10712
N          0.32872       43.40413        6.14643
C          0.66396       43.76059        7.52373
C         -0.58569       44.20361        8.28741
O         -0.87582       43.61516        9.31997
C          1.74126       44.87979        7.57413
C          3.08685       44.40215        7.01838
O          1.31690       46.01069        6.85545
H          0.73170       43.96853        5.38586
H          1.09595       42.87219        8.03888
H          1.89717       45.14412        8.64782
H          1.74576       46.80287        7.27212
H          3.83545       45.21873        7.10122
H          3.45445       43.53239        7.60311
H          3.00351       44.11078        5.95108
N         -1.36332       45.24306        7.85010
C         -2.51758       45.75965        8.59746
C         -3.68147       44.77771        8.73345
O         -4.63458       45.10265        9.42799
C         -3.01025       47.09782        8.00088
C         -3.61681       46.98652        6.59075
C         -4.02940       48.37451        6.08431
C         -4.63859       48.30193        4.67929
N         -4.99328       49.63729        4.19819
H         -1.08392       45.72243        6.98365
H         -2.15854       45.99451        9.62428
H         -2.14980       47.80230        7.97813
H         -3.77837       47.52984        8.68077
H         -4.50832       46.32266        6.61692
H         -2.87568       46.55629        5.88590
H         -3.13162       49.03071        6.05585
H         -4.77344       48.81944        6.78155
H         -5.54963       47.66331        4.70179
H         -3.90487       47.84493        3.97857
H         -4.13871       50.23869        4.14665
H         -5.40824       49.55894        3.24187
H         -5.69446       50.07749        4.83748
N         -3.66403       43.55541        8.13899
C         -4.68820       42.53867        8.33270
C         -4.19443       41.57233        9.39270
O         -4.90752       41.35432       10.36219
C         -5.00385       41.86630        6.98381
C         -5.73196       42.85009        6.04940
C         -5.96000       42.29386        4.67499
O         -5.52144       41.06755        4.34338
O         -6.53996       42.96940        3.84064
H         -2.84832       43.28449        7.57784
H         -5.63771       42.97288        8.72086
H         -5.66426       40.98507        7.14005
H         -4.05497       41.51877        6.51804
H         -5.14431       43.78401        5.94552
H         -6.71602       43.10822        6.49577
N         -2.94749       41.03084        9.32408
C         -2.36383       40.21206       10.36580
H         -1.47400       40.73655       10.77794
H         -3.06858       40.02135       11.20113
H         -2.03854       39.24258        9.93810
H         -2.35082       41.25167        8.52412
Ca        -6.69316       41.37890        1.14942
O         -3.53066       41.59046        0.02351
H         -2.87036       41.12528        0.59638
H         -3.07421       42.42522       -0.24978
O         -5.10898       43.92434        1.45888
H         -4.85729       44.85933        1.66265
H         -5.16249       43.88883        0.47107

Ca 1.0



