%chk=holoCaM.loop2.water2.frame95.chk
%nprocshared=20
%mem=10GB
%nosave
#b3lyp/svp scf=(tight,noincore,xqc) Test 
#IOP(5/87=12) Density=Current Pop=(MK,readradii) iop(6/33=2) iop(6/42=6)

holoCaM.loop2.water2.frame95 

   -2  1 
C         75.10169       50.08386       28.22745
C         75.08187       50.47457       26.77816
O         76.02371       50.15795       26.06966
H         74.18551       50.42751       28.75291
H         75.15866       48.97796       28.31291
H         75.98507       50.53505       28.72412
N         74.02501       51.15936       26.26271
C         73.91256       51.52449       24.85526
C         75.02966       52.47765       24.44306
O         75.21565       53.49538       25.09502
C         72.53403       52.17088       24.59802
C         72.21734       52.33918       23.13922
O         71.05899       52.91943       22.77490
O         72.97057       51.91111       22.28111
H         73.24720       51.39923       26.89704
H         73.95974       50.58850       24.25613
H         72.48612       53.15558       25.10998
H         71.73699       51.51804       25.01491
N         75.79818       52.20477       23.34991
C         76.92516       53.01293       22.90544
C         76.72330       53.62853       21.51860
O         77.57929       54.40984       21.12598
C         78.17817       52.12429       22.89829
H         75.57957       51.36903       22.81055
H         77.08962       53.85187       23.61466
H         78.04923       51.28185       22.18144
H         79.07963       52.70179       22.60450
H         78.34902       51.69380       23.90834
N         75.66780       53.31384       20.70295
C         75.52825       53.85075       19.34349
C         74.09529       54.23999       18.95178
O         73.92138       54.71628       17.83800
C         76.12891       52.85449       18.32718
C         75.45477       51.51037       18.27166
O         74.40812       51.21872       19.06419
O         75.86962       50.66505       17.49592
H         75.02058       52.57891       21.00447
H         76.13518       54.77853       19.24918
H         77.19840       52.69323       18.58448
H         76.09187       53.30772       17.31230
N         73.02552       54.09020       19.78689
C         71.66782       54.49025       19.43239
C         70.99360       53.67031       18.33679
O         69.87335       54.01884       17.99077
H         73.17236       53.74717       20.74039
H         71.68256       55.56025       19.13196
H         71.02343       54.40533       20.33448
N         71.57478       52.58554       17.74190
C         70.94342       51.83232       16.65228
C         69.73100       50.97665       17.06361
O         69.20704       50.27384       16.21019
C         71.99703       51.01300       15.86930
C         72.65963       49.85756       16.56555
N         73.57749       49.13821       15.87740
O         72.38258       49.56114       17.71804
H         72.52801       52.32796       18.01558
H         70.58772       52.56831       15.89739
H         72.79929       51.70991       15.54041
H         71.51310       50.60394       14.95634
H         73.81599       49.38537       14.90675
H         74.05758       48.33437       16.29005
N         69.18665       51.02657       18.31421
C         67.96039       50.34113       18.69855
C         68.12810       48.89843       19.13954
O         67.13530       48.33777       19.58266
H         69.56007       51.69025       18.99732
H         67.19490       50.43557       17.89673
H         67.55370       50.86970       19.58813
N         69.31454       48.22584       19.07182
C         69.48240       46.85195       19.55730
C         70.64677       46.74329       20.54121
O         71.35739       47.71237       20.76056
C         69.69584       45.89329       18.35477
C         68.43394       45.78929       17.49497
O         70.76506       46.32517       17.55278
H         70.12798       48.68762       18.64325
H         68.57647       46.51082       20.10554
H         69.88758       44.85496       18.70776
H         71.60025       46.06994       18.02320
H         68.15824       46.77353       17.06357
H         68.60265       45.07031       16.66495
H         67.58654       45.41242       18.10886
N         70.92345       45.54109       21.12553
C         72.10208       45.26048       21.94001
C         73.08659       44.52806       21.05402
O         72.73960       43.52633       20.44286
C         71.72824       44.44688       23.22299
C         71.09175       45.34503       24.32116
C         72.92169       43.65548       23.80638
C         72.08266       46.27034       25.05072
H         70.32629       44.73622       20.88340
H         72.59982       46.19495       22.25408
H         70.97768       43.68254       22.92364
H         70.64396       44.69200       25.10076
H         70.27574       45.95309       23.87577
H         73.28269       42.89804       23.07953
H         73.77565       44.32092       24.04988
H         72.60928       43.10370       24.71808
H         72.85340       45.68735       25.59839
H         72.59396       46.95005       24.35422
H         71.54677       46.88562       25.80230
N         74.35938       44.99705       20.96081
C         75.39068       44.44029       20.10668
C         76.48568       43.82096       20.95094
O         76.35166       43.77844       22.16275
C         75.89032       45.56290       19.18975
C         74.77987       45.99768       18.26776
O         74.32537       47.26050       18.29276
O         74.32092       45.21375       17.45289
H         74.63275       45.80603       21.53352
H         74.99280       43.61554       19.47638
H         76.74001       45.22904       18.56168
H         76.24949       46.41346       19.81128
N         77.55856       43.22528       20.36437
C         78.50802       42.39523       21.09836
C         79.23308       43.12312       22.23871
O         79.09246       42.64665       23.35638
C         79.45589       41.67548       20.11311
C         80.44475       40.77617       20.80920
C         80.00495       39.70628       21.60850
C         81.82343       40.99986       20.65780
C         80.93151       38.87889       22.24799
C         82.74601       40.16795       21.29650
C         82.30082       39.10885       22.09165
H         77.64277       43.27588       19.33733
H         77.91261       41.58374       21.57485
H         79.98738       42.40100       19.47632
H         78.84418       41.05845       19.41917
H         78.94817       39.51058       21.73776
H         82.18507       41.81705       20.04552
H         80.58700       38.05831       22.86357
H         83.80632       40.34518       21.17384
H         83.01687       38.46581       22.58555
N         80.01391       44.24317       22.09226
C         80.68454       44.91576       23.20716
C         79.77274       45.18616       24.38712
O         80.15005       44.94089       25.52417
C         81.11891       46.25926       22.60215
C         81.42150       45.87138       21.18031
C         80.24752       44.95300       20.85006
H         81.57145       44.31797       23.51585
H         80.25404       46.96047       22.54791
H         81.94118       46.76508       23.15243
H         81.56255       46.71586       20.47328
H         82.35355       45.26015       21.20001
H         79.32508       45.51538       20.58451
H         80.57421       44.32058       20.01203
N         78.53887       45.70071       24.15646
C         77.58551       46.08402       25.18913
C         77.22808       44.88916       26.05560
O         77.40731       44.96015       27.26288
C         76.32482       46.67245       24.52518
C         76.64324       47.92641       23.67343
C         75.47079       48.34880       22.85253
O         74.40939       47.75855       22.92104
O         75.60664       49.30545       21.92978
H         78.27135       45.81490       23.16885
H         78.03112       46.87909       25.82802
H         75.57018       46.94316       25.29625
H         75.88405       45.89076       23.86715
H         77.43508       47.71523       22.93092
H         77.00646       48.75802       24.30521
N         76.74056       43.74747       25.49530
C         76.40254       42.55428       26.24170
H         75.33826       42.29668       26.05833
H         77.03750       41.71374       25.88886
H         76.55657       42.67903       27.33309
H         76.61894       43.70519       24.48007
Ca        74.89821       48.62762       19.94644
O         71.49873       49.18713       23.12211
H         70.64115       49.06267       23.59892
H         72.18811       49.13316       23.82709
O         71.00735       50.46478       20.65213
H         71.19229       51.42599       20.51254
H         70.11180       50.43980       21.07528

Ca 1.0



