%chk=holoCaM.loop3.water2.frame444.chk
%nprocshared=20
%mem=10GB
%nosave
#b3lyp/svp scf=(tight,noincore,xqc) Test 
#IOP(5/87=12) Density=Current Pop=(MK,readradii) iop(6/33=2) iop(6/42=6)

holoCaM.loop3.water2.frame444 

   0  1 
C         22.24283       72.22085       51.78877
C         22.78698       70.82770       51.90199
O         22.73044       70.09231       50.92707
H         21.15898       72.17871       51.55233
H         22.37438       72.78484       52.73658
H         22.77493       72.76220       50.97956
N         23.30584       70.38800       53.08236
C         23.83665       69.04874       53.28783
C         22.84701       68.29486       54.15338
O         22.67212       68.61831       55.31945
C         25.27992       69.17281       53.82130
C         25.92448       67.95157       54.42291
O         26.01617       66.76825       53.78519
O         26.43766       68.06287       55.52130
H         23.28712       71.02254       53.89606
H         23.88746       68.51988       52.32051
H         25.30229       69.95893       54.60850
H         25.91382       69.53548       52.98318
N         22.05269       67.35429       53.55953
C         20.89618       66.73898       54.19752
C         21.27686       65.66453       55.19856
O         20.39560       65.22003       55.92122
C         19.95212       66.13284       53.12370
C         19.43758       67.20347       52.13915
C         18.49611       66.60921       51.08172
C         18.04258       67.64987       50.03892
N         17.27811       68.74817       50.63451
H         22.19537       67.17085       52.56025
H         20.33180       67.53783       54.72826
H         19.07391       65.66807       53.62342
H         20.49307       65.33899       52.55987
H         20.28599       67.68007       51.60571
H         18.90334       67.98032       52.72361
H         17.60641       66.16278       51.57622
H         19.03156       65.80094       50.53710
H         17.40361       67.13343       49.28871
H         18.92831       68.06060       49.50434
H         16.92973       69.37216       49.87141
H         16.45898       68.37322       51.16543
H         17.88221       69.32221       51.26429
N         22.54030       65.15475       55.26636
C         22.92300       64.08885       56.18850
C         24.08697       64.49091       57.08994
O         24.47807       63.68260       57.92085
C         23.20876       62.80461       55.38571
C         24.28083       62.98490       54.35461
O         25.52637       63.30519       54.73467
O         24.02653       62.84020       53.16976
H         23.25428       65.49117       54.60329
H         22.08226       63.84165       56.87240
H         22.26793       62.50363       54.87359
H         23.49824       61.97988       56.07170
N         24.66838       65.72340       57.02085
C         25.72311       66.15569       57.91923
C         26.99075       65.34596       57.77731
O         27.45434       64.82900       58.78389
H         24.33188       66.41818       56.34107
H         25.35378       66.11824       58.96771
H         25.96782       67.21562       57.71255
N         27.62626       65.21771       56.57179
C         28.91226       64.53170       56.42296
C         30.01462       65.45203       55.90379
O         31.16490       65.03574       55.92044
C         28.77617       63.27742       55.53375
C         28.64211       63.57715       54.05356
N         29.53716       63.07288       53.17166
O         27.72700       64.27249       53.64335
H         27.17876       65.62306       55.74149
H         29.24034       64.17823       57.42406
H         27.90707       62.68017       55.88425
H         29.68238       62.65119       55.68123
H         30.31845       62.47985       53.48699
H         29.44625       63.26868       52.16452
N         29.74609       66.69268       55.39814
C         30.76200       67.60958       54.91393
C         30.66942       67.85332       53.42179
O         31.38923       68.71939       52.94749
H         28.77790       67.02705       55.33214
H         31.78977       67.24610       55.12811
H         30.62680       68.57252       55.45189
N         29.86945       67.09964       52.60581
C         29.82472       67.27717       51.15657
C         28.39942       67.44341       50.67810
O         27.47375       67.14714       51.41508
C         30.36894       66.01913       50.43342
C         31.80094       65.65436       50.73979
C         32.18823       65.23017       52.02371
C         32.76229       65.68857       49.71495
C         33.51089       64.86136       52.27810
C         34.08389       65.31702       49.97107
C         34.46280       64.90241       51.25520
O         35.73322       64.53484       51.51461
H         29.30999       66.33526       53.00801
H         30.41655       68.16655       50.85010
H         30.27085       66.18707       49.33776
H         29.73532       65.14095       50.68165
H         31.47267       65.16552       52.83013
H         32.48992       65.99701       48.71289
H         33.79270       64.53458       53.27100
H         34.80981       65.34675       49.16858
H         36.41875       64.54101       50.83156
N         28.16543       67.82898       49.39189
C         26.86489       67.68727       48.74492
C         27.03820       66.89398       47.45388
O         28.15936       66.68734       47.01164
C         26.17475       69.06489       48.51049
C         27.00585       70.00193       47.59636
C         25.86503       69.71556       49.86986
C         26.31025       71.33321       47.29290
H         28.96191       68.15544       48.82420
H         26.19019       67.08546       49.39310
H         25.19918       68.87565       48.01239
H         27.17832       69.49179       46.62460
H         27.99198       70.21952       48.05875
H         25.26645       69.01648       50.48740
H         26.79866       69.96640       50.41551
H         25.25822       70.63541       49.75232
H         25.31789       71.15556       46.82898
H         26.18262       71.94337       48.21032
H         26.93198       71.92509       46.58886
N         25.94798       66.41869       46.79459
C         26.01588       65.75386       45.49618
C         25.24368       66.58277       44.48754
O         24.66958       67.58803       44.86982
C         25.47151       64.32110       45.61014
O         24.13479       64.33257       46.03001
H         25.02209       66.56144       47.21605
H         27.06651       65.68950       45.13964
H         26.09220       63.76663       46.35073
H         25.54968       63.81229       44.62382
H         23.86403       63.38095       46.11100
N         25.20289       66.25258       43.16718
C         24.46088       67.06822       42.20789
C         22.97184       67.07553       42.51749
O         22.32452       68.08551       42.27796
C         24.70111       66.59671       40.77516
H         25.72361       65.42493       42.83978
H         24.84453       68.11242       42.26647
H         24.34084       65.55675       40.63452
H         24.17199       67.26819       40.06440
H         25.78796       66.64157       40.54719
N         22.36723       65.98785       43.07548
C         20.95790       65.95831       43.45149
C         20.66379       67.00402       44.50750
O         19.75967       67.80791       44.33134
C         20.58990       64.57437       44.00958
H         22.93841       65.14761       43.25698
H         20.32559       66.13508       42.55368
H         19.51379       64.54609       44.28600
H         20.77526       63.79359       43.24262
H         21.19166       64.32859       44.91182
N         21.40226       67.02652       45.64788
C         21.15616       67.92750       46.76783
C         21.28555       69.37680       46.33367
O         20.31478       70.11361       46.43859
C         22.14150       67.60724       47.90567
C         21.94215       66.17882       48.45237
C         23.03207       65.84467       49.41267
O         23.74409       64.86782       49.24302
O         23.23887       66.65071       50.45652
H         22.17586       66.34914       45.71560
H         20.12432       67.75995       47.15121
H         22.01285       68.33118       48.74102
H         23.17024       67.71914       47.51532
H         21.95159       65.41178       47.65242
H         20.96071       66.12423       48.96827
N         22.45153       69.85382       45.82132
C         22.59945       71.21419       45.35624
H         23.62802       71.36855       44.96487
H         21.87920       71.41097       44.53408
H         22.42283       71.92458       46.19050
H         23.26224       69.23262       45.74772
Ca        24.79505       66.25879       51.99556
O         25.27763       62.30512       50.59308
H         24.71574       62.19263       49.78578
H         25.48275       61.38191       50.88567
O         27.24816       64.36814       49.63869
H         26.48067       64.33094       49.01475
H         28.02935       64.12366       49.08207

Ca 1.0



