%chk=holoCaM-CaMKII.loop2.water2.frame33.chk
%nprocshared=20
%mem=10GB
%nosave
#b3lyp/svp scf=(tight,noincore,xqc) Test 
#IOP(5/87=12) Density=Current Pop=(MK,readradii) iop(6/33=2) iop(6/42=6)

holoCaM-CaMKII.loop2.water2.frame33 

   -2  1 
C         48.61476       63.78599       30.12513
C         48.22678       62.34014       30.19277
O         47.69975       61.91306       31.21135
H         48.35137       64.30727       31.07107
H         49.70610       63.87681       29.95291
H         48.06698       64.27559       29.29185
N         48.42052       61.52569       29.11555
C         47.95423       60.14313       29.10572
C         48.75500       59.27411       30.07086
O         49.80144       59.70593       30.53594
C         47.96273       59.58723       27.66132
C         47.13753       58.33736       27.53435
O         47.59719       57.33101       27.03150
O         45.87747       58.35230       28.00756
H         48.82775       61.93302       28.25911
H         46.89580       60.18570       29.44227
H         49.00238       59.44366       27.29121
H         47.47836       60.34146       27.01004
N         48.27599       58.05832       30.46773
C         48.94297       57.21012       31.45120
C         49.10277       55.75424       31.01128
O         49.86282       55.05516       31.66737
C         48.14360       57.24619       32.75935
H         47.35612       57.77596       30.12350
H         49.95675       57.61260       31.66689
H         47.12194       56.83637       32.60267
H         48.64944       56.65043       33.54895
H         48.05002       58.29319       33.12007
N         48.36182       55.19195       30.00531
C         48.41365       53.76352       29.67369
C         48.63817       53.48163       28.18566
O         48.69498       52.31513       27.82114
C         47.13453       53.06424       30.19453
C         45.82684       53.52866       29.60494
O         44.68089       52.96031       30.02439
O         45.78141       54.40750       28.76184
H         47.66548       55.76560       29.51704
H         49.25741       53.27893       30.21186
H         47.08213       53.21736       31.29451
H         47.22485       51.97160       30.01211
N         48.79973       54.47941       27.27159
C         49.06821       54.25208       25.85740
C         47.94126       53.62191       25.04827
O         48.16985       53.39315       23.86850
H         48.81851       55.44904       27.59757
H         49.97607       53.61789       25.76967
H         49.29387       55.23090       25.37923
N         46.71573       53.31068       25.56827
C         45.66224       52.66151       24.77905
C         45.05680       53.53493       23.66726
O         44.17481       53.04530       22.97441
C         44.56273       52.07153       25.69606
C         43.73379       53.05211       26.48368
N         42.74338       52.58499       27.27897
O         43.94033       54.25322       26.41243
H         46.54378       53.47743       26.56622
H         46.11397       51.77011       24.28832
H         45.04450       51.37348       26.41540
H         43.86688       51.47384       25.06721
H         42.55992       51.57324       27.34827
H         42.15236       53.22570       27.82394
N         45.49762       54.79859       23.39339
C         45.01997       55.58017       22.25930
C         43.72053       56.32574       22.49652
O         43.29594       57.01883       21.58302
H         46.28288       55.18945       23.92498
H         44.95147       54.93310       21.35721
H         45.77679       56.36276       22.03580
N         43.05341       56.27973       23.68478
C         41.84585       57.05819       23.96524
C         42.09286       57.99552       25.14054
O         43.17911       57.98335       25.69995
C         40.66235       56.10093       24.25933
C         40.34052       55.22087       23.04993
O         40.95038       55.27613       25.36022
H         43.41865       55.68698       24.44044
H         41.56599       57.69288       23.09584
H         39.73567       56.68792       24.45748
H         40.68968       55.77849       26.17596
H         39.46865       54.57195       23.27939
H         40.08502       55.85355       22.17279
H         41.20345       54.57240       22.78966
N         41.10188       58.81345       25.59735
C         41.23559       59.63340       26.79586
C         40.38532       58.98740       27.86569
O         39.20464       58.75194       27.64761
C         40.84780       61.11777       26.54369
C         41.75621       61.72152       25.44148
C         40.97237       61.91836       27.86234
C         41.43564       63.17567       25.09118
H         40.18316       58.79592       25.12994
H         42.28989       59.63875       27.15251
H         39.79000       61.16279       26.20259
H         41.64160       61.12402       24.51205
H         42.81740       61.67000       25.75620
H         42.02040       61.90334       28.23404
H         40.65026       62.97009       27.73422
H         40.31591       61.49378       28.64990
H         40.38010       63.27100       24.76244
H         41.62117       63.85124       25.95080
H         42.10036       63.50766       24.26593
N         40.94990       58.66907       29.05937
C         40.27050       57.95084       30.12326
C         39.94427       58.90193       31.26372
O         40.32837       60.06092       31.20321
C         41.16936       56.76366       30.51857
C         41.24309       55.75969       29.38882
O         40.24603       55.10879       29.12140
O         42.36848       55.53781       28.66768
H         41.92168       58.95538       29.23358
H         39.28321       57.57534       29.77313
H         40.77629       56.24040       31.41645
H         42.18473       57.14399       30.76512
N         39.10221       58.51603       32.26803
C         38.53255       59.47941       33.20839
C         39.56946       60.11894       34.12827
O         39.63093       61.34077       34.11485
C         37.33711       58.89288       33.99839
C         36.69351       59.95667       34.86156
C         36.70773       59.84428       36.26253
C         36.08920       61.08265       34.27117
C         36.13713       60.84539       37.05561
C         35.51910       62.07862       35.06756
C         35.54493       61.96177       36.45878
H         38.75072       57.54598       32.27358
H         38.08595       60.29037       32.59026
H         37.64739       58.03897       34.61963
H         36.57441       58.50094       33.29098
H         37.17028       58.99050       36.74181
H         36.05970       61.19323       33.19472
H         36.15770       60.75819       38.13400
H         35.06010       62.94274       34.60458
H         35.10646       62.73694       37.07359
N         40.40964       59.41493       34.95626
C         41.40725       60.03825       35.82581
C         42.22110       61.11304       35.13525
O         42.45151       62.17166       35.70103
C         42.33583       58.86768       36.18529
C         41.36654       57.71828       36.25671
C         40.50356       57.96648       35.02393
H         40.90627       60.43635       36.73650
H         43.01929       58.63905       35.33404
H         42.95440       59.03361       37.09282
H         41.82288       56.70669       36.30405
H         40.74040       57.87259       37.16568
H         40.98740       57.59962       34.09192
H         39.55030       57.44314       35.19135
N         42.67962       60.87519       33.88186
C         43.54222       61.76778       33.12141
C         42.85892       63.09968       32.88008
O         43.39725       64.11939       33.28725
C         43.89784       61.09954       31.78029
C         44.62597       59.75126       31.98371
C         44.68019       58.95637       30.72653
O         45.11072       57.68371       30.77996
O         44.25942       59.41465       29.67728
H         42.38198       59.98881       33.45159
H         44.48809       61.93162       33.68507
H         44.53140       61.76746       31.15550
H         42.94716       60.91303       31.23346
H         44.08452       59.09496       32.68769
H         45.64514       59.90892       32.39567
N         41.66482       63.16103       32.22481
C         40.95676       64.39539       31.95573
H         39.95690       64.35568       32.43648
H         41.49660       65.28656       32.33815
H         40.82280       64.50899       30.85933
H         41.22381       62.29145       31.89884
Ca        44.20634       56.82074       28.25371
O         45.77726       57.78656       24.69364
H         45.59283       57.00898       25.27962
H         46.63889       57.57171       24.25754
O         44.90062       60.57689       26.59207
H         45.00035       61.15013       27.39339
H         45.46978       61.00457       25.90428

Ca 1.0



