%chk=holoCaM.loop2.water2.frame357.chk
%nprocshared=20
%mem=10GB
%nosave
#b3lyp/svp scf=(tight,noincore,xqc) Test 
#IOP(5/87=12) Density=Current Pop=(MK,readradii) iop(6/33=2) iop(6/42=6)

holoCaM.loop2.water2.frame357 

   -2  1 
C         93.03229       -4.42887       87.41549
C         93.14772       -5.90884       87.66348
O         93.09890       -6.67690       86.71553
H         93.85640       -4.10171       86.74567
H         92.05925       -4.19156       86.94011
H         93.11398       -3.84992       88.36102
N         93.34397       -6.37567       88.92559
C         93.58787       -7.77819       89.24666
C         92.36567       -8.65916       88.99509
O         91.29666       -8.33904       89.49655
C         93.97149       -7.89568       90.74035
C         94.52667       -9.24202       91.10673
O         94.80198      -10.05667       90.24550
O         94.78951       -9.52890       92.39405
H         93.39495       -5.68376       89.68987
H         94.46156       -8.11824       88.64625
H         93.07546       -7.67804       91.36120
H         94.76042       -7.15677       90.99488
N         92.48032       -9.83315       88.30472
C         91.38267      -10.78347       88.12513
C         91.64972      -12.14460       88.78442
O         90.74546      -12.96846       88.76273
C         91.13269      -10.98247       86.62489
H         93.39799      -10.07879       87.91815
H         90.45223      -10.38130       88.58079
H         90.27992      -11.67471       86.45507
H         90.89455      -10.01117       86.14223
H         92.03572      -11.40949       86.13566
N         92.85570      -12.47852       89.34090
C         93.16920      -13.80943       89.86532
C         93.89363      -13.78452       91.21936
O         93.42763      -14.47331       92.11637
C         93.87873      -14.66130       88.78190
C         95.12163      -14.10167       88.15957
O         95.66322      -12.96235       88.59469
O         95.61733      -14.66416       87.19663
H         93.62280      -11.81060       89.27536
H         92.22714      -14.37863       90.03488
H         93.15254      -14.76603       87.94528
H         94.09245      -15.67772       89.17535
N         95.02461      -13.04863       91.45436
C         95.77529      -13.08384       92.70443
C         97.23549      -13.48612       92.51814
O         97.93764      -13.54874       93.51747
H         95.37535      -12.40630       90.74306
H         95.31763      -13.79192       93.42692
H         95.75016      -12.07125       93.16112
N         97.77173      -13.77846       91.29307
C         99.16100      -14.20589       91.08540
C        100.22480      -13.13024       91.38209
O        101.39983      -13.41939       91.20103
C         99.33520      -14.76639       89.64841
C         99.18103      -13.76111       88.53641
N         99.33365      -14.14991       87.25074
O         98.92470      -12.59595       88.78525
H         97.15519      -13.76278       90.47201
H         99.35287      -15.06935       91.75939
H         98.58963      -15.57671       89.49026
H        100.34669      -15.21750       89.55988
H         99.54510      -15.13102       87.01751
H         99.24674      -13.46588       86.48692
N         99.90794      -11.89443       91.86701
C        100.88862      -10.88524       92.24164
C        101.44042      -10.05494       91.09650
O        102.17474       -9.12335       91.39519
H         98.93432      -11.67645       92.09192
H        101.70745      -11.34451       92.83888
H        100.37628      -10.15625       92.90627
N        101.15358      -10.30112       89.78329
C        101.66280       -9.47309       88.68777
C        100.55322       -9.01846       87.74274
O         99.44459       -9.53187       87.80086
C        102.73117      -10.26128       87.89102
C        103.94429      -10.58842       88.76581
O        102.19564      -11.46397       87.39748
H        100.59324      -11.12250       89.54321
H        102.13749       -8.55241       89.09326
H        103.11328       -9.64208       87.04636
H        101.64239      -11.23620       86.60578
H        103.65472      -11.23033       89.62471
H        104.70597      -11.13062       88.16691
H        104.40168       -9.65263       89.15280
N        100.81968       -8.05337       86.81333
C         99.89532       -7.64902       85.75613
C        100.02056       -8.63161       84.60041
O        101.13181       -8.93160       84.18558
C        100.18245       -6.18249       85.28369
C         99.92941       -5.19117       86.45255
C         99.30453       -5.81481       84.06698
C        100.17840       -3.72065       86.09664
H        101.75803       -7.62408       86.81663
H         98.84786       -7.64388       86.13556
H        101.24455       -6.10339       84.96090
H        100.60422       -5.44912       87.29566
H         98.87927       -5.28611       86.80761
H         99.52829       -4.79920       83.68688
H         99.53051       -6.48410       83.21877
H         98.22443       -5.88268       84.31750
H         99.45934       -3.35807       85.33329
H        100.02886       -3.09162       86.99892
H        101.21499       -3.57813       85.72641
N         98.90213       -9.09089       83.97190
C         98.91360       -9.97224       82.80280
C         98.55929       -9.15555       81.58131
O         98.32462       -7.96896       81.72760
C         97.86386      -11.08688       82.96700
C         97.96666      -11.79633       84.27411
O         97.88015      -11.05812       85.39105
O         97.98364      -13.01509       84.33097
H         97.99050       -8.73328       84.28967
H         99.92285      -10.41545       82.65856
H         97.90528      -11.80941       82.12358
H         96.85541      -10.61472       82.96357
N         98.51567       -9.69000       80.33223
C         98.19134       -8.85914       79.18044
C         96.74862       -8.33520       79.22613
O         96.60410       -7.12459       79.14658
C         98.51816       -9.55337       77.84421
C         98.20977       -8.62513       76.69223
C         98.89112       -7.40031       76.55524
C         97.21174       -8.96178       75.76393
C         98.57113       -6.52829       75.51251
C         96.89554       -8.08583       74.72210
C         97.57301       -6.86981       74.59733
H         98.76402      -10.68242       80.19652
H         98.87446       -7.98018       79.21355
H         97.95586      -10.49397       77.73567
H         99.59564       -9.82518       77.81872
H         99.66421       -7.11382       77.25717
H         96.66868       -9.89428       75.85497
H         99.09439       -5.58542       75.41803
H         96.11998       -8.34790       74.01512
H         97.32330       -6.19099       73.79297
N         95.63451       -9.13540       79.33739
C         94.26340       -8.62158       79.36984
C         94.07995       -7.49991       80.37113
O         93.49801       -6.47405       80.04740
C         93.43217       -9.83700       79.81271
C         94.20329      -10.97767       79.20252
C         95.64300      -10.57599       79.50670
H         93.97089       -8.29980       78.34537
H         93.50510       -9.97967       80.91561
H         92.35580       -9.78116       79.54213
H         93.92015      -11.99033       79.56051
H         94.05088      -10.92999       78.09968
H         95.92936      -10.80686       80.55621
H         96.28591      -11.12666       78.80476
N         94.59991       -7.64605       81.61639
C         94.50271       -6.66477       82.68914
C         95.12894       -5.35145       82.25205
O         94.48005       -4.31879       82.33599
C         95.19953       -7.21597       83.95527
C         94.54382       -8.53379       84.43466
C         95.22036       -9.15872       85.61348
O         96.16664       -8.62572       86.16924
O         94.79365      -10.36217       86.03150
H         95.13022       -8.51154       81.78848
H         93.43389       -6.49145       82.94679
H         95.14403       -6.46302       84.77138
H         96.26814       -7.39990       83.72310
H         94.57946       -9.30557       83.64355
H         93.47660       -8.35778       84.68378
N         96.38114       -5.33329       81.72530
C         97.02626       -4.13480       81.24177
H         98.01735       -4.39496       80.80837
H         96.41026       -3.66668       80.44510
H         97.17830       -3.42132       82.07683
H         96.88429       -6.21540       81.62851
Ca        96.88037      -11.79586       87.19475
O         97.70052      -10.13887       90.53806
H         97.20159      -10.34322       91.36825
H         98.44061       -9.55362       90.83730
O         97.33373       -7.80152       88.84111
H         97.45147       -7.32568       89.70087
H         96.90730       -7.13710       88.24505

Ca 1.0



