%chk=holoCaM-CaMKII.loop3.water1.frame419.chk
%nprocshared=20
%mem=10GB
%nosave
#b3lyp/svp scf=(tight,noincore,xqc) Test 
#IOP(5/87=12) Density=Current Pop=(MK,readradii) iop(6/33=2) iop(6/42=6)

holoCaM-CaMKII.loop3.water1.frame419 

   0  1 
C         61.18483       64.23125       30.78686
C         60.47494       63.65929       31.97593
O         60.97608       63.80386       33.08217
H         62.18998       63.76987       30.69735
H         60.62040       64.04332       29.84957
H         61.29538       65.32809       30.91876
N         59.29383       62.99600       31.82255
C         58.53760       62.44627       32.93597
C         58.44268       60.93386       32.75246
O         57.90614       60.48646       31.74802
C         57.16212       63.14106       32.97251
C         56.43211       62.89741       34.25198
O         56.01609       63.93396       35.00487
O         56.21997       61.76322       34.62376
H         58.90202       62.88589       30.87419
H         59.05730       62.67286       33.89276
H         56.54778       62.80692       32.10901
H         57.30376       64.24103       32.88982
N         59.01460       60.08858       33.65749
C         59.12780       58.64116       33.45868
C         57.77996       57.92487       33.40235
O         57.73244       56.81973       32.88079
C         59.99125       58.04773       34.59728
C         60.45671       56.59680       34.37869
C         61.32685       56.08814       35.54437
C         60.52155       55.86625       36.83837
N         61.38255       55.38114       37.91638
H         59.47398       60.50606       34.47833
H         59.65847       58.49487       32.49122
H         59.40987       58.14044       35.53688
H         60.91518       58.66168       34.68990
H         61.07301       56.57952       33.45310
H         59.60346       55.90198       34.24186
H         62.16193       56.80071       35.72551
H         61.76774       55.11159       35.24786
H         59.72342       55.11565       36.64143
H         60.03873       56.80698       37.17373
H         62.10092       56.10456       38.15068
H         60.79798       55.20015       38.76455
H         61.85399       54.49121       37.63473
N         56.66507       58.45429       33.98368
C         55.37225       57.77379       34.03349
C         54.29811       58.62527       33.37427
O         53.72001       58.17533       32.39441
C         55.02273       57.35388       35.48185
C         55.01188       58.45611       36.50850
O         53.99440       58.69518       37.13734
O         56.13845       59.13744       36.79217
H         56.74705       59.36522       34.44745
H         55.41749       56.81823       33.46340
H         55.77445       56.60790       35.81879
H         54.03165       56.84837       35.46698
N         54.00852       59.87819       33.82665
C         53.06603       60.77493       33.17362
C         52.02155       61.35644       34.10565
O         51.19227       62.10969       33.61432
H         54.52163       60.23435       34.63636
H         52.54716       60.26763       32.33222
H         53.63758       61.62881       32.74984
N         51.98600       61.08929       35.44689
C         50.96556       61.65442       36.33033
C         50.99510       63.18226       36.41037
O         50.04205       63.74282       36.93359
C         51.03645       61.02884       37.74428
C         52.31908       61.29273       38.50162
N         52.48190       60.78734       39.74464
O         53.21521       61.95367       38.00312
H         52.67186       60.43973       35.84906
H         49.98017       61.36760       35.89929
H         50.91520       59.92819       37.64623
H         50.18763       61.41290       38.35022
H         51.73983       60.22517       40.18548
H         53.35288       60.95870       40.26769
N         52.02778       63.92194       35.90854
C         52.00967       65.37454       35.83330
C         53.13812       66.04159       36.58529
O         53.34284       67.22374       36.34706
H         52.85318       63.45038       35.51182
H         51.04999       65.81466       36.17992
H         52.11904       65.63433       34.75811
N         53.88833       65.39157       37.52460
C         55.00962       66.02504       38.21064
C         56.27480       65.16085       38.03070
O         56.14106       63.97246       38.75827
C         54.64937       66.35906       39.68472
C         54.24957       65.19285       40.56534
C         55.21773       64.47455       41.29083
C         52.89603       64.83957       40.70325
C         54.84299       63.40759       42.11223
C         52.52203       63.77698       41.53261
C         53.49217       63.05519       42.23578
O         53.11559       62.02922       43.02578
H         53.65278       64.42295       37.77724
H         55.23024       67.00575       37.73567
H         53.79751       67.07393       39.65663
H         55.47892       66.91720       40.17087
H         56.26598       64.73739       41.21578
H         52.12933       65.38643       40.16881
H         55.60304       62.85821       42.65380
H         51.47616       63.51374       41.62865
H         53.75581       61.50121       43.52414
N         57.48479       65.87875       38.46006
C         58.71937       65.07763       38.28731
C         59.49030       65.05678       39.59100
O         59.21259       65.84993       40.48004
C         59.61270       65.51370       37.07540
C         60.19098       66.94824       37.23510
C         58.83933       65.34361       35.75815
C         61.17225       67.34156       36.12665
H         57.54526       66.80951       37.99316
H         58.44292       64.01507       38.11243
H         60.47571       64.81157       37.03403
H         60.74792       67.00250       38.19458
H         59.38541       67.70950       37.25957
H         59.48693       65.52709       34.87766
H         58.48490       64.29779       35.67633
H         57.96851       66.03023       35.70940
H         62.01203       66.61681       36.07481
H         60.66959       67.39703       35.13968
H         61.58650       68.34928       36.34237
N         60.43554       64.09860       39.78825
C         61.19205       63.93338       41.02212
C         62.68283       63.92127       40.72579
O         63.06977       64.06415       39.57711
C         60.75296       62.62060       41.69589
O         61.04678       61.52434       40.87529
H         60.58866       63.41013       39.04029
H         60.97776       64.76110       41.73243
H         59.65634       62.66176       41.88203
H         61.27092       62.50768       42.67332
H         60.86242       60.71318       41.41623
N         63.58468       63.73545       41.72856
C         65.02239       63.62575       41.50021
C         65.34457       62.41853       40.63317
O         66.02658       62.57055       39.62947
C         65.75701       63.49840       42.83912
H         63.23173       63.65300       42.69380
H         65.39432       64.55363       41.01016
H         65.55009       64.39128       43.46685
H         65.42856       62.59201       43.39105
H         66.85312       63.43850       42.66775
N         64.86478       61.18540       40.96481
C         65.14098       59.96329       40.21098
C         64.77033       60.10269       38.74803
O         65.59620       59.80053       37.89797
C         64.36879       58.78628       40.82064
H         64.25767       61.11698       41.79692
H         66.22571       59.72447       40.28266
H         63.27289       58.96761       40.77739
H         64.59787       57.84943       40.26840
H         64.66481       58.64601       41.88201
N         63.55134       60.58839       38.38635
C         63.13038       60.76678       36.99741
C         64.13763       61.62488       36.25185
O         64.67208       61.17527       35.24730
C         61.73064       61.41814       36.93451
C         60.63852       60.52386       37.55079
C         59.30992       61.22129       37.58660
O         58.67949       61.40234       38.76294
O         58.79171       61.62406       36.55937
H         62.91753       60.87814       39.14384
H         63.07464       59.77378       36.49597
H         61.46091       61.61551       35.87296
H         61.77031       62.39144       37.46232
H         60.89481       60.23746       38.58866
H         60.55394       59.59153       36.96091
N         64.47659       62.85796       36.71286
C         65.47130       63.68338       36.06612
H         66.44525       63.14901       36.03831
H         65.14909       63.92959       35.03318
H         65.60528       64.62734       36.63678
H         64.03530       63.21336       37.56768
Ca        55.99511       62.20023       37.35885
O         56.00268       60.02479       39.76461
H         56.16690       60.22250       40.72068
H         55.28523       59.34238       39.77088

Ca 1.0



