%chk=holoCaM.loop2.water2.frame285.chk
%nprocshared=20
%mem=10GB
%nosave
#b3lyp/svp scf=(tight,noincore,xqc) Test 
#IOP(5/87=12) Density=Current Pop=(MK,readradii) iop(6/33=2) iop(6/42=6)

holoCaM.loop2.water2.frame285 

   -2  1 
C         27.02856       57.79336       55.96117
C         26.23692       56.57182       55.58972
O         25.56208       56.00392       56.43364
H         28.10424       57.63718       55.74059
H         26.66272       58.65385       55.35696
H         26.90148       58.04653       57.03437
N         26.23473       56.15362       54.29867
C         25.35096       55.11556       53.78143
C         25.71421       53.70911       54.25781
O         26.84851       53.29869       54.05312
C         25.41838       55.14103       52.23768
C         24.26825       54.43466       51.59108
O         24.24317       54.31479       50.37762
O         23.21419       54.02554       52.32213
H         26.81079       56.69030       53.63031
H         24.31509       55.38839       54.08083
H         26.38533       54.70488       51.90226
H         25.36963       56.18590       51.86554
N         24.77388       52.88531       54.81455
C         25.02304       51.47913       55.14331
C         24.13621       50.50883       54.34434
O         24.33054       49.31005       54.49225
C         24.80405       51.26448       56.64636
H         23.83128       53.26009       54.98113
H         26.07687       51.21255       54.91195
H         25.47974       51.92532       57.22983
H         23.75261       51.49606       56.92413
H         25.02140       50.21173       56.93010
N         23.12378       50.93249       53.52616
C         22.17745       50.03121       52.85584
C         21.88453       50.39830       51.38628
O         21.07565       49.70592       50.78331
C         20.87656       49.97587       53.68243
C         20.38271       51.34097       53.99966
O         20.13918       52.21189       53.01509
O         20.27385       51.69842       55.16300
H         22.91870       51.93471       53.47976
H         22.56400       48.98921       52.84297
H         21.07995       49.45672       54.64497
H         20.09044       49.40222       53.14757
N         22.51673       51.41041       50.72056
C         22.33763       51.65518       49.28917
C         20.96931       52.15603       48.83131
O         20.71641       52.05808       47.63887
H         23.24673       51.94123       51.20214
H         22.54072       50.69391       48.76830
H         23.09958       52.37534       48.92276
N         20.05557       52.73519       49.66483
C         18.69127       53.08333       49.23285
C         18.50688       54.54422       48.78196
O         17.37219       54.93213       48.53799
C         17.67117       52.66768       50.32619
C         17.71723       53.50375       51.57588
N         16.89993       53.23321       52.61723
O         18.48726       54.44063       51.65215
H         20.31610       52.88040       50.64838
H         18.41730       52.45671       48.35561
H         17.85085       51.60433       50.59643
H         16.64131       52.74976       49.91703
H         16.23905       52.44505       52.58086
H         16.93161       53.81787       53.46454
N         19.56048       55.39051       48.58131
C         19.42185       56.75983       48.08060
C         18.89104       57.78505       49.08135
O         18.77854       58.94262       48.70454
H         20.51407       55.02290       48.68416
H         18.78441       56.75276       47.16818
H         20.42716       57.12197       47.77711
N         18.54654       57.45023       50.35527
C         18.01802       58.37639       51.35615
C         18.77744       58.26434       52.67120
O         18.92351       57.16201       53.17457
C         16.53161       58.04353       51.64993
C         15.62481       58.39025       50.47134
O         16.36716       56.68193       51.96389
H         18.62291       56.47266       50.62832
H         18.05043       59.43202       51.00489
H         16.17550       58.68123       52.49603
H         16.47545       56.58576       52.94548
H         15.89816       57.80239       49.57135
H         14.56942       58.16915       50.73990
H         15.70216       59.47467       50.23986
N         19.16855       59.38092       53.35370
C         19.59937       59.33555       54.75459
C         18.47862       58.75748       55.61849
O         17.33962       59.19424       55.52387
C         20.04931       60.75080       55.26669
C         21.47885       61.03912       54.72537
C         20.03794       60.84094       56.80896
C         22.07681       62.38095       55.15788
H         19.05107       60.30160       52.90367
H         20.47886       58.66419       54.85990
H         19.32812       61.52008       54.91302
H         21.46274       61.00678       53.61588
H         22.17217       60.24324       55.08311
H         20.73023       60.09867       57.24108
H         20.31042       61.85302       57.16532
H         19.01740       60.67045       57.21047
H         22.21211       62.43332       56.25832
H         23.08799       62.49013       54.71211
H         21.43694       63.22022       54.81868
N         18.79175       57.82576       56.56321
C         17.86161       57.23534       57.52364
C         18.19837       57.77136       58.89232
O         19.07492       58.61862       58.98164
C         18.04616       55.70702       57.55364
C         17.97615       55.09960       56.20393
O         18.84621       55.54921       55.29078
O         17.26124       54.13727       55.97478
H         19.78102       57.55261       56.65810
H         16.80839       57.49083       57.27508
H         17.32630       55.21494       58.24150
H         19.07640       55.48883       57.91384
N         17.56500       57.34896       60.01870
C         17.93429       57.89134       61.31447
C         19.37565       57.52275       61.70059
O         20.10628       58.43906       62.04422
C         16.93957       57.52558       62.43240
C         17.18132       58.43707       63.61032
C         16.87326       59.80735       63.50272
C         17.73906       57.94970       64.80100
C         17.12287       60.67388       64.56635
C         17.99577       58.82434       65.86227
C         17.68767       60.18390       65.74505
H         16.79244       56.66759       59.94872
H         17.86445       58.99789       61.20805
H         17.03833       56.46606       62.72471
H         15.89159       57.67776       62.09354
H         16.43919       60.20497       62.59248
H         17.99480       56.90219       64.89838
H         16.88261       61.72533       64.47192
H         18.43973       58.44949       66.77420
H         17.88807       60.85940       66.56567
N         19.88178       56.23711       61.65611
C         21.25408       55.87740       62.04005
C         22.36928       56.55010       61.24820
O         23.53064       56.29267       61.53784
C         21.33002       54.36894       61.75762
C         19.90444       53.93010       61.97561
C         19.13776       55.05087       61.28307
H         21.36052       56.09474       63.12545
H         21.53362       54.20359       60.67194
H         22.10383       53.82518       62.34129
H         19.66769       52.91071       61.60300
H         19.69553       53.97747       63.06846
H         19.18396       54.93736       60.17986
H         18.09068       55.01838       61.62253
N         22.09499       57.38622       60.21404
C         23.08227       57.99487       59.34341
C         23.10182       59.49264       59.60486
O         24.17029       60.04266       59.82831
C         22.71915       57.65103       57.88200
C         22.57438       56.12456       57.68176
C         22.15616       55.72828       56.29484
O         21.99221       56.55897       55.41736
O         21.92730       54.43011       56.02729
H         21.11995       57.57296       59.96892
H         24.10192       57.59319       59.54017
H         23.49177       58.06061       57.19491
H         21.74878       58.12026       57.63421
H         21.78943       55.73469       58.36344
H         23.52990       55.61882       57.93042
N         21.94145       60.20427       59.67304
C         21.89029       61.60857       60.00748
H         20.82902       61.93852       60.06535
H         22.35831       61.77843       61.00045
H         22.40906       62.20534       59.23100
H         21.04729       59.73079       59.53036
Ca        19.78141       54.19565       53.87200
O         21.32111       55.93080       51.00121
H         21.84099       55.28755       50.45964
H         21.46931       56.79990       50.55130
O         22.96826       57.40377       52.78507
H         23.83556       57.77910       53.07775
H         22.28805       57.98986       53.20064

Ca 1.0



