%chk=holoCaM-CaMKII.loop3.water2.frame61.chk
%nprocshared=20
%mem=10GB
%nosave
#b3lyp/svp scf=(tight,noincore,xqc) Test 
#IOP(5/87=12) Density=Current Pop=(MK,readradii) iop(6/33=2) iop(6/42=6)

holoCaM-CaMKII.loop3.water2.frame61 

   0  1 
C         91.05034       41.95791       79.64295
C         92.27634       41.09966       79.71194
O         92.17902       39.93962       80.08581
H         90.15447       41.39943       79.98727
H         91.18715       42.84454       80.29964
H         90.89221       42.29893       78.59934
N         93.48715       41.63884       79.40494
C         94.74787       40.92636       79.52765
C         95.45326       41.45569       80.75252
O         96.47328       42.12372       80.66351
C         95.54492       41.02061       78.21138
C         96.94076       40.45423       78.30391
O         97.88412       41.17510       78.02328
O         97.18649       39.18816       78.70546
H         93.52661       42.63583       79.14086
H         94.57527       39.85590       79.72599
H         95.62249       42.08529       77.90166
H         94.99226       40.47275       77.42144
N         94.92590       41.13921       81.96608
C         95.51795       41.50590       83.24279
C         96.89735       40.87920       83.37173
O         97.85715       41.60429       83.59336
C         94.60121       41.04832       84.40445
C         93.24145       41.77862       84.37964
C         92.33731       41.33258       85.53814
C         91.02806       42.14097       85.62661
N         90.16199       41.95756       84.45961
H         94.06730       40.56773       81.97293
H         95.61106       42.61341       83.30761
H         95.10236       41.28113       85.36951
H         94.43865       39.94873       84.35197
H         92.71940       41.58112       83.42212
H         93.42610       42.87150       84.46325
H         92.88602       41.48713       86.49228
H         92.10422       40.24917       85.44219
H         91.26361       43.22123       85.75141
H         90.47690       41.80699       86.53352
H         90.61356       42.32972       83.59467
H         89.92886       40.94553       84.33777
H         89.27476       42.48986       84.61305
N         97.06941       39.53161       83.22630
C         98.36693       38.86054       83.36057
C         99.41737       39.28826       82.32742
O        100.56439       38.89030       82.47852
C         98.17867       37.32771       83.37834
C         97.51335       36.78834       82.14393
O         98.05425       36.86898       81.05587
O         96.30796       36.19975       82.24334
H         96.22950       38.95954       83.05027
H         98.77634       39.13622       84.35810
H         97.53370       37.07966       84.24928
H         99.15430       36.81674       83.52771
N         99.12988       40.13563       81.29904
C        100.14207       40.72849       80.43989
C        100.80580       39.80617       79.43861
O        101.65717       40.31139       78.71881
H         98.17057       40.46932       81.17423
H        100.91887       41.20402       81.07888
H         99.66929       41.54408       79.85256
N        100.50506       38.47830       79.29665
C        101.20613       37.65386       78.31073
C        100.92240       38.07637       76.86655
O        101.64262       37.63236       75.98389
C        100.95777       36.13689       78.48849
C         99.56253       35.64505       78.18259
N         99.32769       34.31473       78.10349
O         98.64905       36.42904       77.98596
H         99.81306       38.04553       79.91636
H        102.29279       37.80406       78.50163
H        101.23042       35.82330       79.51979
H        101.64722       35.61811       77.78802
H        100.09234       33.63810       78.24570
H         98.38907       33.95885       77.86976
N         99.89299       38.91700       76.55204
C         99.64268       39.43530       75.21703
C         98.31185       39.01380       74.62805
O         98.00922       39.50310       73.54740
H         99.26458       39.23818       77.29299
H        100.43366       39.12064       74.50206
H         99.67128       40.54395       75.27813
N         97.50056       38.07429       75.20496
C         96.30536       37.55163       74.53905
C         95.07897       37.56095       75.43818
O         95.19479       37.81969       76.62806
C         96.59992       36.11044       74.07584
C         97.83784       36.06820       73.20910
C         97.86018       36.71681       71.96293
C         98.99300       35.40381       73.65725
C         99.02030       36.70793       71.18300
C        100.15230       35.39870       72.87681
C        100.17013       36.05338       71.63693
O        101.28389       36.06309       70.87721
H         97.79275       37.62875       76.08242
H         96.06463       38.17238       73.64855
H         95.73992       35.68127       73.51828
H         96.76221       35.48911       74.98251
H         96.98258       37.23593       71.59903
H         99.00368       34.90254       74.61747
H         99.02698       37.21645       70.22720
H        101.03712       34.89108       73.23984
H        102.10228       35.62951       71.15840
N         93.84801       37.31699       74.90075
C         92.59406       37.30217       75.65443
C         91.81817       36.03857       75.28753
O         91.58080       35.81496       74.10701
C         91.76691       38.58450       75.33693
C         92.57916       39.84752       75.73815
C         90.41685       38.55339       76.08833
C         91.92276       41.17076       75.34448
H         93.78786       37.18963       73.87740
H         92.79106       37.31817       76.74981
H         91.56704       38.61650       74.24286
H         93.56388       39.83312       75.22669
H         92.75677       39.84347       76.83607
H         90.58142       38.52646       77.18778
H         89.79473       39.43543       75.84037
H         89.81995       37.66409       75.79962
H         92.59235       42.00858       75.63449
H         91.76809       41.20647       74.24535
H         90.95598       41.32339       75.86272
N         91.35899       35.18874       76.25028
C         90.61683       33.95840       75.97515
C         89.19774       34.04620       76.51727
O         88.82875       35.08001       77.04616
C         91.36914       32.76908       76.59896
O         91.39645       32.86764       78.00012
H         91.52489       35.43133       77.23529
H         90.54313       33.77888       74.88055
H         92.39979       32.71004       76.17841
H         90.88002       31.81019       76.33145
H         92.27726       33.24698       78.25189
N         88.34034       32.99102       76.41330
C         86.97687       32.98649       76.94541
C         86.96045       33.17448       78.45135
O         86.24040       34.03692       78.93348
C         86.28423       31.66022       76.61202
H         88.67555       32.14159       75.93370
H         86.38382       33.79694       76.46440
H         86.24077       31.52216       75.51136
H         86.83109       30.80258       77.05955
H         85.24414       31.66354       77.00488
N         87.74643       32.39927       79.25197
C         87.78261       32.50192       80.70989
C         88.01701       33.93061       81.15405
O         87.26558       34.43912       81.97438
C         88.89597       31.59903       81.26408
H         88.37450       31.72078       78.79336
H         86.81553       32.15177       81.13305
H         88.92545       31.65371       82.37327
H         88.71329       30.54334       80.97088
H         89.88909       31.90576       80.86773
N         89.03682       34.64376       80.61607
C         89.34547       36.02285       80.97208
C         88.17317       36.94869       80.67418
O         87.75115       37.67529       81.56315
C         90.61784       36.47108       80.22678
C         91.83107       35.62767       80.67360
C         93.07758       36.07558       79.98714
O         93.30309       35.75304       78.83447
O         93.96133       36.83929       80.64296
H         89.61238       34.17411       79.90088
H         89.56761       36.08592       82.06151
H         90.82583       37.53446       80.48152
H         90.46552       36.40083       79.12860
H         91.70497       34.53933       80.49218
H         91.95731       35.76635       81.76827
N         87.57766       36.95366       79.45284
C         86.45488       37.80437       79.12375
H         85.61207       37.61663       79.82237
H         86.75839       38.87052       79.17667
H         86.10776       37.58506       78.09015
H         87.91405       36.30953       78.73634
Ca        95.65693       37.73417       79.48104
O         96.09567       33.99200       80.23455
H         95.93053       33.85978       81.20156
H         96.06645       33.07834       79.85548
O         95.47596       34.37325       77.12331
H         94.57320       33.96960       77.16285
H         95.98550       33.77524       76.52111

Ca 1.0



