%chk=holoCaM.loop4.water3.frame167.chk
%nprocshared=20
%mem=10GB
%nosave
#b3lyp/svp scf=(tight,noincore,xqc) Test 
#IOP(5/87=12) Density=Current Pop=(MK,readradii) iop(6/33=2) iop(6/42=6)

holoCaM.loop4.water3.frame167 

   -3  1 
C         -4.67546      107.69330        2.34363
C         -5.15802      106.78054        3.43100
O         -4.39096      105.93676        3.87204
H         -3.62604      107.45040        2.06601
H         -5.31810      107.59630        1.44593
H         -4.70282      108.74254        2.70818
N         -6.41413      106.92160        3.94731
C         -6.84732      106.20241        5.13890
C         -8.34868      105.93794        5.15109
O         -9.11942      106.88208        5.03879
C         -6.45158      107.03714        6.36643
C         -6.81396      106.33590        7.63778
O         -6.35658      105.22935        7.87574
O         -7.65050      106.92242        8.51459
H         -6.99476      107.70127        3.60075
H         -6.30865      105.23536        5.21497
H         -6.95164      108.02977        6.32889
H         -5.35215      107.20200        6.36114
N         -8.82649      104.67526        5.37560
C        -10.24587      104.35590        5.53559
C        -10.57800      103.78982        6.93049
O        -11.73824      103.46808        7.14192
C        -10.71783      103.32629        4.45631
C         -9.99679      101.95633        4.58137
C        -10.56956      103.89610        3.03558
C        -10.77000      100.81090        3.92784
H         -8.14813      103.90730        5.47595
H        -10.86316      105.27336        5.41507
H        -11.80300      103.16157        4.64042
H         -9.89739      101.66698        5.64249
H         -8.97848      102.02178        4.15765
H         -9.50122      104.08618        2.79736
H        -10.97653      103.19370        2.27963
H        -11.12812      104.85095        2.94542
H        -11.75966      100.70268        4.42435
H        -10.92050      100.97364        2.84357
H        -10.21198       99.86077        4.07081
N         -9.63106      103.57022        7.89870
C         -9.90941      102.71483        9.06684
C         -9.11970      103.07201       10.33928
O         -9.35121      102.42595       11.35324
C         -9.69927      101.23335        8.65930
C         -8.25238      100.95104        8.38306
O         -7.55778      101.77865        7.58697
O         -7.66757      100.07578        9.00018
H         -8.66120      103.81378        7.68007
H        -10.98142      102.82239        9.33991
H        -10.30813      101.01480        7.75924
H        -10.05474      100.55523        9.46586
N         -8.22387      104.09850       10.39244
C         -7.59496      104.57098       11.62048
C         -6.55127      103.67667       12.27420
O         -6.06208      104.08679       13.31812
H         -8.06100      104.66257        9.55573
H         -8.39599      104.78961       12.35886
H         -7.07901      105.53159       11.39908
N         -6.12694      102.48304       11.76133
C         -5.10999      101.66304       12.44261
C         -3.71086      102.29677       12.47340
O         -2.81612      101.70200       13.05885
C         -5.04738      100.24780       11.82840
C         -4.54338      100.19284       10.41483
O         -4.07485      101.28778        9.78730
O         -4.59698       99.13645        9.80715
H         -6.56190      102.13007       10.89682
H         -5.44894      101.51775       13.49270
H         -6.07837       99.83042       11.84823
H         -4.40501       99.58737       12.45078
N         -3.44467      103.49045       11.87028
C         -2.14005      104.12966       11.86186
C         -1.15184      103.37977       11.00416
O         -0.07424      103.06201       11.48328
H         -4.19873      103.99602       11.39575
H         -1.76904      104.26794       12.90174
H         -2.24425      105.13860       11.41011
N         -1.45766      103.09759        9.70299
C         -0.55438      102.44388        8.75318
C         -1.23655      102.30928        7.39213
O         -2.28925      101.69419        7.29933
C         -0.03009      101.07174        9.24790
C         -1.12037      100.06441        9.64207
C         -0.55841       98.75057       10.12773
N         -1.39984       97.76467       10.51225
O          0.64925       98.56439       10.17732
H         -2.38758      103.39056        9.36437
H          0.34447      103.08842        8.63190
H          0.62360      101.22758       10.12992
H          0.61299      100.63742        8.45064
H         -1.77300       99.84774        8.77416
H         -1.72592      100.49943       10.46300
H         -2.41947       97.90104       10.47646
H         -1.03255       96.86139       10.84468
N         -0.69124      102.89229        6.28810
C         -1.30834      102.83225        4.96270
C         -1.30841      101.39432        4.44820
O         -0.26201      100.76089        4.45747
C         -0.58114      103.77122        3.94912
C         -1.31621      103.78014        2.59469
C         -0.51456      105.22692        4.45319
H          0.19143      103.40900        6.40533
H         -2.34975      103.21402        5.03662
H          0.45903      103.41042        3.79017
H         -0.79576      104.44295        1.87166
H         -1.34824      102.76812        2.15020
H         -2.35768      104.14986        2.72029
H          0.07259      105.32061        5.38713
H         -0.01002      105.86698        3.69781
H         -1.53397      105.62882        4.63519
N         -2.43869      100.85169        3.90857
C         -2.51217       99.51212        3.32376
C         -2.53799       99.61740        1.80325
O         -2.56443      100.71809        1.27445
C         -3.77004       98.80832        3.89481
C         -4.05648       97.41745        3.38452
N         -3.18639       96.40399        3.59448
O         -5.10326       97.19901        2.79194
H         -3.27508      101.44671        3.83727
H         -1.60332       98.92794        3.58507
H         -4.65527       99.44806        3.67519
H         -3.65315       98.73153        4.99188
H         -2.30421       96.56261        4.10076
H         -3.39987       95.45663        3.24860
N         -2.44391       98.49751        1.03252
C         -2.41036       98.51316       -0.42998
C         -3.77806       98.75564       -1.07589
O         -3.81094       98.89628       -2.28940
C         -1.71512       97.23420       -0.95534
C         -2.36376       95.95709       -0.47558
C         -3.63444       95.57228       -0.92807
C         -1.69171       95.14385        0.45493
C         -4.22960       94.40320       -0.44636
C         -2.28978       93.97972        0.93894
C         -3.56076       93.60632        0.49420
O         -4.12836       92.48365        0.97717
H         -2.28785       97.60615        1.51743
H         -1.74923       99.35083       -0.74990
H         -0.67191       97.27459       -0.56833
H         -1.64201       97.23906       -2.06424
H         -4.16554       96.17229       -1.65356
H         -0.71100       95.42061        0.82315
H         -5.21197       94.12083       -0.80201
H         -1.76596       93.37269        1.66653
H         -5.00949       92.19455        0.70131
N         -4.92864       98.87858       -0.34447
C         -6.20372       99.31561       -0.92276
C         -6.47092      100.77276       -0.55655
O         -7.50841      101.30139       -0.93648
C         -7.36808       98.41355       -0.46685
C         -7.24320       96.98223       -1.00170
C         -8.45203       96.16503       -0.64176
O         -9.55931       96.49709       -1.03652
O         -8.31867       95.05055        0.10150
H         -4.88830       98.78681        0.67932
H         -6.16994       99.29405       -2.03398
H         -8.31283       98.84035       -0.87200
H         -7.43763       98.40580        0.64365
H         -6.33542       96.50739       -0.57969
H         -7.15658       97.00261       -2.11020
N         -5.53433      101.50653        0.10393
C         -5.62173      102.92330        0.39717
C         -4.59014      103.68923       -0.42631
O         -4.51390      104.89979       -0.27508
C         -5.33700      103.13430        1.89572
C         -6.31648      102.36341        2.78766
C         -5.97052      102.45389        4.24485
O         -6.70579      101.76354        5.12690
O         -5.01879      103.10650        4.64066
H         -4.65742      101.06393        0.38015
H         -6.62853      103.32349        0.14592
H         -5.39109      104.21466        2.14269
H         -4.30626      102.77467        2.10761
H         -6.29484      101.28524        2.52418
H         -7.34305      102.75215        2.62512
N         -3.76687      103.05641       -1.32130
C         -2.76779      103.73806       -2.11558
H         -1.76980      103.30434       -1.89315
H         -2.99150      103.58227       -3.19192
H         -2.73320      104.82754       -1.91277
H         -3.82991      102.04067       -1.47221
Ca        -5.46165      102.07923        8.25556
O         -4.94956      100.02363        6.56450
H         -4.30880       99.63152        7.20854
H         -5.76860       99.47625        6.65562
O         -3.31245      104.82435        6.99552
H         -3.91112      104.87670        6.21104
H         -2.91148      105.72692        7.05724
O         -4.18985      105.78593        9.64448
H         -4.33706      106.50377        8.98120
H         -4.34035      106.22561       10.51788

Ca 1.0



