%chk=holoCaM.loop2.water0.frame54.chk
%nprocshared=20
%mem=10GB
%nosave
#b3lyp/svp scf=(tight,noincore,xqc) Test 
#IOP(5/87=12) Density=Current Pop=(MK,readradii) iop(6/33=2) iop(6/42=6)

holoCaM.loop2.water0.frame54 

   -2  1 
C         78.05993       27.78393       24.25983
C         77.56061       28.66553       23.15869
O         77.10247       28.16127       22.14302
H         79.13055       28.00472       24.45392
H         77.47283       27.98094       25.18135
H         77.95458       26.71326       23.98579
N         77.62432       30.01647       23.29904
C         77.13862       30.93906       22.28654
C         77.86236       30.73419       20.96341
O         79.08445       30.76606       20.92800
C         77.30165       32.38908       22.75457
C         76.75547       33.31208       21.71354
O         77.52410       34.02287       21.09178
O         75.44043       33.31271       21.41415
H         78.02282       30.39896       24.17128
H         76.05721       30.76190       22.15105
H         78.38180       32.60011       22.91350
H         76.76443       32.56615       23.71247
N         77.13554       30.55921       19.82579
C         77.70002       30.32520       18.50917
C         77.39311       31.49232       17.58752
O         78.32868       32.06012       17.04063
C         77.13357       29.01498       17.95581
H         76.11360       30.59828       19.89421
H         78.80550       30.21120       18.56708
H         76.02671       29.06365       17.86815
H         77.56501       28.79720       16.95638
H         77.39152       28.17960       18.64217
N         76.11217       31.91494       17.36539
C         75.79445       33.01720       16.45582
C         76.45830       34.34382       16.82983
O         76.54474       35.18854       15.94862
C         74.27096       33.20139       16.28052
C         73.57027       33.39873       17.59160
O         73.95865       34.38190       18.41410
O         72.66194       32.65498       17.92543
H         75.34191       31.41472       17.83098
H         76.20532       32.74018       15.45903
H         73.84188       32.30677       15.78015
H         74.07726       34.08095       15.62802
N         76.95936       34.60691       18.07562
C         77.76990       35.79102       18.35314
C         77.17773       36.83331       19.29168
O         77.83312       37.85728       19.42755
H         76.81983       33.91677       18.82219
H         77.98766       36.33278       17.40878
H         78.75504       35.45823       18.74942
N         75.99736       36.69302       19.97418
C         75.44663       37.77575       20.80867
C         75.62792       37.54603       22.30848
O         75.12526       38.34337       23.08936
C         73.96193       38.06497       20.49163
C         73.00505       36.95207       20.95856
N         71.73403       37.50437       21.40737
O         72.76934       36.08408       19.89719
H         75.49157       35.79858       19.92455
H         75.98098       38.72688       20.59045
H         73.80357       38.30699       19.41697
H         73.71269       38.99185       21.05302
H         71.92065       38.10748       22.24125
H         71.15050       36.70899       21.75300
N         76.38654       36.52683       22.78823
C         76.64143       36.30396       24.19960
C         75.46477       35.75154       24.98485
O         75.63424       35.58978       26.18482
H         76.89097       35.94351       22.12517
H         76.99335       37.25672       24.65365
H         77.46444       35.56360       24.29961
N         74.26332       35.42636       24.41413
C         73.12586       34.91774       25.18564
C         72.69054       33.54893       24.66128
O         72.49958       33.38838       23.46644
C         71.98272       35.94702       25.16220
C         70.83663       35.51128       26.08732
O         72.48649       37.17796       25.61683
H         74.12828       35.56240       23.40201
H         73.40692       34.81148       26.25699
H         71.61624       36.05318       24.11647
H         71.84807       37.87967       25.32644
H         70.40193       34.54576       25.75565
H         71.20709       35.39698       27.13049
H         70.03430       36.27753       26.08448
N         72.54184       32.50880       25.52934
C         72.27723       31.12034       25.13838
C         70.87586       30.94711       24.53528
O         69.90274       31.34005       25.16367
C         72.46629       30.15155       26.35792
C         73.86728       30.33165       27.02250
C         72.29890       28.68541       25.89555
C         74.05377       29.50902       28.29908
H         72.67009       32.72330       26.52638
H         73.05125       30.81624       24.40448
H         71.68565       30.38403       27.11616
H         74.02197       31.37762       27.34395
H         74.67333       30.08694       26.29737
H         73.07025       28.42776       25.13621
H         72.38121       27.97329       26.73853
H         71.29829       28.51756       25.45718
H         74.04997       28.42117       28.09497
H         75.03488       29.75959       28.75524
H         73.25461       29.75471       29.03138
N         70.70987       30.25537       23.36587
C         69.42173       29.90462       22.76248
C         69.18971       28.39615       22.88536
O         70.05484       27.70630       23.40522
C         69.40499       30.29752       21.26689
C         69.77679       31.73149       21.01197
O         71.00995       32.16037       21.34370
O         69.00163       32.48284       20.44231
H         71.54485       29.89011       22.90465
H         68.59533       30.42478       23.29456
H         68.39897       30.08980       20.84056
H         70.14413       29.67301       20.71762
N         68.03186       27.80969       22.45799
C         67.75910       26.37894       22.61725
C         68.72918       25.49889       21.83091
O         69.25573       24.58173       22.43957
C         66.26811       26.05195       22.36623
C         65.87905       24.60404       22.63051
C         66.30449       23.91660       23.78842
C         65.03543       23.93440       21.72427
C         65.91057       22.59452       24.01688
C         64.62537       22.61902       21.97101
C         65.06706       21.94821       23.11298
H         67.29457       28.41086       22.05768
H         67.91152       26.15005       23.69361
H         65.94615       26.35690       21.35059
H         65.69165       26.67369       23.08448
H         66.94722       24.38405       24.51942
H         64.67136       24.43678       20.83719
H         66.25423       22.07282       24.90141
H         63.95994       22.11980       21.27850
H         64.75196       20.92946       23.30090
N         69.05612       25.69593       20.51345
C         70.09794       24.93888       19.82265
C         71.42541       24.96328       20.57018
O         72.01087       23.91280       20.79571
C         70.24686       25.66980       18.47693
C         68.84671       26.18415       18.24827
C         68.47202       26.68928       19.64030
H         69.74112       23.89680       19.66317
H         70.88233       26.57728       18.59064
H         70.67825       25.04988       17.66147
H         68.74250       26.93593       17.43750
H         68.20503       25.30515       18.00802
H         68.93050       27.67653       19.86122
H         67.36881       26.74178       19.69817
N         71.94607       26.15174       20.99213
C         73.23110       26.29356       21.68146
C         73.23424       25.60580       23.04330
O         74.30592       25.38336       23.58859
C         73.54761       27.78970       21.89769
C         73.63481       28.58296       20.57533
C         73.67038       30.07236       20.77641
O         73.66372       30.61936       22.00400
O         73.67237       30.80511       19.80280
H         71.38799       26.99714       20.80309
H         74.02009       25.83775       21.04310
H         74.49428       27.92229       22.46399
H         72.72770       28.18479       22.52113
H         72.74702       28.39619       19.94295
H         74.53368       28.25568       20.01018
N         72.07243       25.29161       23.67700
C         72.01702       24.64534       24.96754
H         70.95491       24.52212       25.27569
H         72.48431       23.64080       24.90682
H         72.53540       25.26435       25.72863
H         71.18503       25.54281       23.24310
Ca        71.89214       34.15237       20.73913

Ca 1.0



