%chk=holoCaM.loop1.water2.frame91.chk
%nprocshared=20
%mem=10GB
%nosave
#b3lyp/svp scf=(tight,noincore,xqc) Test 
#IOP(5/87=12) Density=Current Pop=(MK,readradii) iop(6/33=2) iop(6/42=6)

holoCaM.loop1.water2.frame91 

   0  1 
C         73.85636       31.38190       15.28904
C         72.77688       32.16687       14.61597
O         71.61122       31.99402       14.94504
H         74.55179       32.08116       15.80077
H         73.42479       30.69026       16.04263
H         74.41507       30.79690       14.53032
N         73.10308       33.08431       13.66772
C         72.10400       33.93014       13.04359
C         71.12525       33.13000       12.18692
O         71.54261       32.48160       11.23680
C         72.76633       35.00312       12.18312
C         71.73390       35.94962       11.67667
O         72.01412       36.70281       10.77116
O         70.55574       36.07159       12.32045
H         74.09982       33.22498       13.43745
H         71.57349       34.45046       13.86650
H         73.31943       34.53670       11.33995
H         73.48879       35.59885       12.78646
N         69.79516       33.14314       12.48465
C         68.80626       32.31206       11.80394
C         68.32002       32.82586       10.44185
O         67.55020       32.10424        9.82537
C         67.58468       32.09898       12.73311
C         66.73017       33.36703       12.93993
C         65.58288       33.09565       13.92354
C         64.69980       34.32886       14.18015
N         63.96800       34.75189       12.98400
H         69.51317       33.65738       13.33017
H         69.26423       31.30688       11.66497
H         67.95543       31.72904       13.71506
H         66.93358       31.30805       12.30104
H         66.31964       33.67736       11.95922
H         67.34742       34.19755       13.33615
H         66.02499       32.78741       14.89605
H         64.94924       32.26246       13.54960
H         65.32177       35.16685       14.56333
H         63.96237       34.06701       14.97032
H         63.35175       35.55984       13.22955
H         64.62269       35.06245       12.23507
H         63.37284       33.96860       12.62932
N         68.64881       34.05259        9.92660
C         67.97878       34.58127        8.72440
C         68.77167       35.64845        7.95402
O         68.20871       36.25322        7.04878
C         66.54192       35.04821        9.06886
C         66.47563       36.18729       10.04704
O         67.59147       36.69341       10.60231
O         65.39062       36.65887       10.34588
H         69.26757       34.66703       10.46885
H         67.86098       33.75862        7.98458
H         65.96250       34.19775        9.48884
H         66.03038       35.36030        8.13222
N         70.10358       35.83549        8.15125
C         70.94820       36.67539        7.31281
C         70.74206       38.17211        7.44287
O         70.68302       38.84524        6.42435
H         70.59177       35.26447        8.85441
H         70.86444       36.36019        6.24773
H         71.99967       36.49311        7.61917
N         70.71220       38.77036        8.66565
C         70.78581       40.21807        8.87934
C         71.89589       40.58343        9.89012
O         72.01215       41.75414       10.22399
C         69.38902       40.78473        9.23049
C         68.74326       40.07487       10.36679
O         67.74222       39.40299       10.18360
O         69.31878       40.08606       11.56756
H         70.64645       38.16839        9.49522
H         71.05798       40.73953        7.93570
H         68.74116       40.64815        8.33702
H         69.44980       41.87315        9.44361
N         72.80495       39.66284       10.34469
C         73.95769       39.98175       11.18245
C         73.66885       40.34270       12.63137
O         74.61734       40.70057       13.31491
H         72.77141       38.70784        9.98166
H         74.51743       40.81054       10.69865
H         74.63666       39.10015       11.21361
N         72.42190       40.28168       13.17926
C         72.12196       40.68753       14.55598
C         71.44073       39.56540       15.32971
O         70.49826       38.97286       14.82893
C         71.25502       41.96451       14.55217
C         72.04810       43.17531       14.02590
O         70.06571       41.77882       13.82760
H         71.64012       39.96887       12.59075
H         73.04718       40.95957       15.11104
H         70.98059       42.20878       15.60165
H         70.26385       41.94051       12.86867
H         71.41512       44.08586       14.06428
H         72.94692       43.34514       14.65709
H         72.37931       43.01358       12.97788
N         71.83419       39.27325       16.60491
C         71.24793       38.21012       17.41765
C         70.17878       38.77771       18.34842
O         70.47513       39.60172       19.20116
C         72.38794       37.43453       18.15805
C         73.18160       36.60215       17.11211
C         71.86145       36.53993       19.29367
C         74.34311       35.78786       17.68461
H         72.55808       39.86340       17.04275
H         70.72672       37.47913       16.76471
H         73.05991       38.17295       18.64934
H         73.59482       37.28903       16.34312
H         72.49159       35.89119       16.60383
H         72.69926       36.07561       19.85036
H         71.29926       37.13183       20.04451
H         71.21879       35.74377       18.89936
H         75.06722       36.45155       18.19988
H         73.98239       35.00798       18.38690
H         74.86114       35.26071       16.85550
N         68.89598       38.31623       18.23337
C         67.78770       38.65192       19.12762
C         67.76763       37.68708       20.31191
O         68.61870       36.81793       20.39011
C         66.44454       38.57004       18.34423
C         66.39494       39.61846       17.22141
O         66.28476       37.26984       17.82508
H         68.70710       37.60384       17.51627
H         67.91076       39.68408       19.52398
H         65.59841       38.78683       19.03145
H         65.50396       37.27231       17.21267
H         65.41748       39.56514       16.69454
H         66.49626       40.63889       17.64793
H         67.20419       39.44689       16.48290
N         66.80961       37.79373       21.28097
C         66.72563       36.89465       22.43702
C         66.50892       35.44760       22.02076
O         67.09144       34.56884       22.64445
C         65.61363       37.32258       23.42439
C         65.89226       38.70508       24.02991
O         64.36414       37.31689       22.78358
H         66.11668       38.54901       21.19522
H         67.68325       36.94679       23.00313
H         65.61236       36.58157       24.25970
H         63.67584       37.30937       23.49940
H         65.11285       38.94899       24.78200
H         66.87937       38.70735       24.53996
H         65.88779       39.49826       23.25487
N         65.68972       35.11893       20.98290
C         65.50686       33.74804       20.50518
C         66.83944       33.19173       20.02338
O         67.27314       32.15675       20.50597
C         64.44879       33.73853       19.37499
C         64.05268       32.35844       18.81414
C         63.45792       31.41760       19.87564
C         62.80660       30.18734       19.22361
N         62.27032       29.27559       20.23476
H         65.19321       35.88351       20.49681
H         65.11795       33.12833       21.34239
H         64.80303       34.36613       18.52774
H         63.52300       34.21020       19.77198
H         64.91641       31.86642       18.31593
H         63.27719       32.55181       18.04004
H         62.67253       31.95412       20.45105
H         64.25964       31.09475       20.57420
H         63.54766       29.64471       18.59660
H         61.97470       30.52789       18.56589
H         63.05014       28.88435       20.81128
H         61.59008       29.77487       20.85305
H         61.77453       28.48774       19.75789
N         67.55730       33.87510       19.08771
C         68.86532       33.45116       18.58071
C         69.95251       33.45756       19.65818
O         71.04501       32.97840       19.38288
C         69.30942       34.42112       17.46732
C         68.38836       34.42230       16.24266
C         68.70265       35.61316       15.38798
O         67.75854       36.54320       15.16407
O         69.82150       35.77481       14.93678
H         67.14524       34.74806       18.72865
H         68.77545       32.42177       18.16955
H         70.34443       34.19557       17.12254
H         69.29825       35.43605       17.91289
H         67.32369       34.50417       16.53970
H         68.51611       33.47581       15.67545
N         69.75805       34.02553       20.87964
C         70.78240       34.08450       21.89871
H         71.66755       34.63627       21.52176
H         70.39263       34.62298       22.79048
H         71.08009       33.06012       22.20176
H         68.86412       34.46649       21.09506
Ca        69.57488       38.05511       12.38038
O         66.02196       37.70812       13.37890
H         66.19824       36.83411       12.95090
H         65.03666       37.79476       13.38514
O         67.36747       40.22605       13.80703
H         67.61646       40.97051       14.40890
H         66.38513       40.30425       13.71488

Ca 1.0



