%chk=holoCaM.loop4.water3.frame207.chk
%nprocshared=20
%mem=10GB
%nosave
#b3lyp/svp scf=(tight,noincore,xqc) Test 
#IOP(5/87=12) Density=Current Pop=(MK,readradii) iop(6/33=2) iop(6/42=6)

holoCaM.loop4.water3.frame207 

   -3  1 
C         29.75807       72.78883       52.49398
C         30.34249       71.42759       52.72482
O         29.58801       70.46794       52.71389
H         28.99839       73.00787       53.27263
H         30.53769       73.57776       52.51449
H         29.26726       72.80596       51.49683
N         31.68100       71.26282       52.93888
C         32.31066       69.95194       53.09027
C         33.77862       70.11847       53.47666
O         34.52680       70.75794       52.75056
C         32.16273       69.14764       51.77877
C         32.78710       67.78185       51.82778
O         33.63416       67.49346       50.99811
O         32.42006       66.84839       52.73412
H         32.27246       72.10707       52.98720
H         31.79021       69.40339       53.90278
H         32.62246       69.72753       50.94704
H         31.09439       69.00614       51.53106
N         34.24192       69.55850       54.63105
C         35.60002       69.67893       55.14306
C         36.30989       68.32099       55.18388
O         37.49451       68.31905       55.48890
C         35.60130       70.38120       56.55343
C         34.85883       69.55833       57.64714
C         35.00222       71.79641       56.43203
C         34.92053       70.14766       59.06133
H         33.59313       69.00670       55.18138
H         36.19655       70.31400       54.45269
H         36.66045       70.48932       56.87490
H         35.28981       68.53608       57.69712
H         33.79509       69.48247       57.39292
H         35.08692       72.35680       57.38506
H         35.55103       72.38015       55.66471
H         33.92861       71.74937       56.14720
H         34.38043       69.47385       59.76251
H         35.97170       70.24259       59.40183
H         34.41836       71.13509       59.11771
N         35.67016       67.13252       54.92274
C         36.34081       65.83044       55.01336
C         36.05423       64.87276       53.84606
O         36.63803       63.79754       53.83942
C         36.01280       65.17204       56.36994
C         34.56120       64.85428       56.61587
O         33.70032       65.10242       55.78756
O         34.20928       64.28562       57.78377
H         34.65793       67.13720       54.74992
H         37.44223       65.98527       55.01451
H         36.35257       65.85748       57.17659
H         36.59510       64.22981       56.46188
N         35.20593       65.17656       52.82078
C         34.99912       64.30629       51.66523
C         34.30614       62.97496       51.93283
O         34.22285       62.19302       50.99599
H         34.74895       66.09177       52.80749
H         35.99157       64.10402       51.20771
H         34.38686       64.84165       50.90738
N         33.78152       62.63161       53.14453
C         33.16885       61.32545       53.40541
C         31.98911       60.99732       52.48532
O         31.97592       59.90732       51.93075
C         32.80002       61.13554       54.90026
C         31.85795       62.12384       55.53293
O         31.47082       63.11387       54.93975
O         31.47246       61.92881       56.80799
H         33.84237       63.30636       53.91759
H         33.93833       60.54178       53.22020
H         33.73489       61.16598       55.49995
H         32.36046       60.12024       55.01272
N         30.98147       61.88441       52.26243
C         29.81445       61.61361       51.43003
C         28.50472       61.87838       52.15574
O         27.46359       61.74539       51.52642
H         31.05992       62.81674       52.67116
H         29.81200       60.56769       51.05382
H         29.85287       62.29215       50.55146
N         28.46848       62.27214       53.46187
C         27.25434       62.59595       54.19850
C         27.30521       64.04263       54.67480
O         28.27278       64.74288       54.39795
C         27.13678       61.64848       55.41511
C         26.97808       60.18070       55.00036
C         26.78092       59.30142       56.20941
N         27.74548       59.18803       57.15251
O         25.73504       58.68259       56.33827
H         29.34405       62.35744       53.98933
H         26.34790       62.48118       53.56348
H         26.24247       61.91118       56.01625
H         28.03318       61.77122       56.06293
H         27.86889       59.83324       54.43533
H         26.08644       60.09585       54.34014
H         28.63838       59.69342       57.06054
H         27.60021       58.58759       57.97784
N         26.29706       64.54002       55.44377
C         26.29926       65.86547       56.04696
C         26.48942       65.66547       57.53910
O         25.77612       64.85811       58.12243
C         24.97250       66.61279       55.74491
C         25.03024       68.05525       56.28106
C         24.66637       66.64644       54.23971
H         25.50176       63.92580       55.67658
H         27.13810       66.48085       55.64730
H         24.13382       66.07728       56.24336
H         25.21544       68.06905       57.37502
H         25.84353       68.62485       55.77918
H         24.06782       68.57652       56.09238
H         23.70356       67.17248       54.06090
H         25.47170       67.16764       53.68024
H         24.55854       65.61594       53.84009
N         27.43709       66.36091       58.22401
C         27.75082       66.11649       59.62785
C         27.17107       67.21339       60.49904
O         26.63164       68.18202       59.98173
C         29.29039       66.00072       59.75258
C         29.83249       65.70241       61.12404
N         29.54149       64.53616       61.74078
O         30.56907       66.50984       61.67203
H         27.95082       67.10680       57.73348
H         27.27899       65.16710       59.96092
H         29.73829       66.94677       59.39796
H         29.63903       65.19289       59.08558
H         28.93793       63.83770       61.28476
H         29.93181       64.32831       62.67115
N         27.18493       67.08005       61.85504
C         26.63849       68.07774       62.76605
C         27.48578       69.34998       62.83301
O         27.06120       70.28545       63.49592
C         26.41780       67.49254       64.18399
C         27.68076       67.10849       64.92363
C         28.26165       68.01325       65.82750
C         28.26946       65.84204       64.75440
C         29.41877       67.66825       66.53055
C         29.42730       65.49945       65.45754
C         30.00749       66.40990       66.34487
O         31.12323       66.06330       67.01694
H         27.53668       66.19813       62.23681
H         25.62525       68.34942       62.39314
H         25.73178       66.61806       64.14287
H         25.87671       68.25958       64.78068
H         27.82116       68.98966       65.98481
H         27.83297       65.10791       64.09144
H         29.85548       68.38025       67.21868
H         29.87035       64.52146       65.31611
H         31.55251       66.66308       67.64339
N         28.67450       69.47002       62.16962
C         29.48178       70.68659       62.16417
C         29.47812       71.32865       60.78353
O         30.16529       72.32617       60.60621
C         30.92933       70.36114       62.59614
C         31.00408       69.83750       64.03540
C         32.43070       69.61071       64.44945
O         32.80372       68.50006       64.79137
O         33.30292       70.63790       64.46062
H         29.02650       68.68628       61.60406
H         29.07337       71.44886       62.86247
H         31.53566       71.29226       62.53707
H         31.37384       69.61273       61.90128
H         30.43570       68.88680       64.11346
H         30.55469       70.58188       64.72733
N         28.71465       70.83496       59.76435
C         28.71132       71.37715       58.41447
C         27.33810       71.89338       58.01455
O         27.21425       72.41395       56.91413
C         29.12483       70.27029       57.42878
C         30.36364       69.51263       57.90745
C         30.77141       68.49545       56.89807
O         31.91587       68.48382       56.51943
O         29.91797       67.63453       56.32571
H         28.12425       70.01439       59.92354
H         29.43865       72.21504       58.33919
H         29.29459       70.71490       56.42233
H         28.30020       69.52599       57.34878
H         30.14322       69.00454       58.86187
H         31.20728       70.21804       58.08571
N         26.25022       71.76381       58.82936
C         24.93580       72.20807       58.42643
H         24.20050       71.98176       59.22796
H         24.94518       73.30262       58.24449
H         24.62487       71.67503       57.50230
H         26.33007       71.32309       59.75580
Ca        30.90487       66.95159       54.41317
O         30.91901       64.96679       56.94813
H         31.58202       64.63160       57.60209
H         30.17547       64.31370       56.99207
O         30.66013       65.05180       51.85481
H         30.21329       65.00434       50.97524
H         31.59463       64.77817       51.67036
O         28.93774       67.75832       52.47305
H         28.63939       67.93394       53.40105
H         28.73316       66.80311       52.32206

Ca 1.0



