%chk=holoCaM.loop2.water1.frame372.chk
%nprocshared=20
%mem=10GB
%nosave
#b3lyp/svp scf=(tight,noincore,xqc) Test 
#IOP(5/87=12) Density=Current Pop=(MK,readradii) iop(6/33=2) iop(6/42=6)

holoCaM.loop2.water1.frame372 

   -2  1 
C        -16.84358       12.28257       71.53017
C        -17.17896       10.88619       71.95710
O        -16.41910        9.96717       71.68552
H        -15.87214       12.31322       70.99467
H        -17.64357       12.66563       70.86366
H        -16.77707       12.93615       72.42725
N        -18.30655       10.66707       72.68095
C        -18.66637        9.36244       73.21312
C        -19.18968        8.45502       72.09804
O        -20.14503        8.83196       71.43549
C        -19.68053        9.57121       74.35681
C        -19.85303        8.35885       75.21223
O        -20.42394        7.37913       74.79294
O        -19.39322        8.35603       76.47000
H        -18.88193       11.48677       72.93402
H        -17.75834        8.93838       73.69137
H        -20.66033        9.93775       73.98372
H        -19.26487       10.35577       75.02406
N        -18.58352        7.26515       71.80651
C        -19.01251        6.37161       70.72289
C        -20.34270        5.65751       70.99743
O        -20.91743        5.11038       70.06737
C        -17.92074        5.33447       70.43253
H        -17.74637        7.02102       72.34107
H        -19.12578        6.99363       69.80810
H        -17.74368        4.69105       71.32158
H        -18.20312        4.69383       69.57075
H        -16.97192        5.85535       70.17802
N        -20.88252        5.62394       72.24615
C        -22.20442        5.09827       72.59819
C        -23.13661        6.21953       73.06901
O        -24.27779        5.93357       73.40396
C        -22.08461        3.91542       73.59786
C        -21.03184        4.05296       74.66874
O        -21.09236        4.96143       75.65746
O        -20.06699        3.30498       74.63384
H        -20.32744        6.02588       73.00066
H        -22.72132        4.68562       71.70356
H        -21.77140        3.03884       72.98919
H        -23.07148        3.65816       74.04034
N        -22.75748        7.52996       73.00763
C        -23.62884        8.66709       73.25004
C        -24.02804        8.88905       74.68976
O        -24.69677        9.88365       74.93568
H        -21.82333        7.76230       72.67062
H        -24.53102        8.58712       72.60586
H        -23.08079        9.58510       72.93989
N        -23.67208        8.04516       75.70048
C        -24.06131        8.29599       77.08579
C        -23.26978        9.44268       77.71454
O        -23.59053        9.81998       78.83337
C        -23.88189        7.02231       77.93272
C        -24.70958        5.88431       77.38146
N        -24.12248        4.73744       76.97021
O        -25.92352        6.00242       77.30267
H        -23.14655        7.18772       75.48566
H        -25.14586        8.55423       77.10138
H        -24.21118        7.21584       78.97650
H        -22.80411        6.74823       77.95294
H        -23.10436        4.61428       77.03779
H        -24.68766        3.96703       76.58426
N        -22.22849       10.04794       77.06932
C        -21.48231       11.16067       77.63431
C        -20.60454       10.80269       78.82023
O        -20.13537       11.72217       79.47520
H        -21.96819        9.74686       76.12345
H        -22.19143       11.97521       77.89213
H        -20.78715       11.56156       76.86370
N        -20.25531        9.51267       79.10049
C        -19.26491        9.13891       80.10988
C        -18.12176        8.43703       79.38531
O        -18.35114        7.41286       78.75894
C        -19.93049        8.26070       81.18858
C        -18.91969        7.79396       82.23810
O        -20.93115        8.99599       81.84820
H        -20.65713        8.75194       78.53528
H        -18.86451       10.04440       80.61921
H        -20.37800        7.35427       80.72014
H        -21.65863        9.16610       81.19494
H        -18.45376        8.66708       82.74346
H        -19.43658        7.17378       83.00032
H        -18.12253        7.17668       81.77319
N        -16.87866        8.99452       79.35644
C        -15.85673        8.59040       78.39099
C        -15.06798        7.38245       78.86738
O        -14.61188        7.35652       80.00141
C        -14.95497        9.80464       78.00372
C        -15.79175       11.03898       77.54292
C        -13.94500        9.42604       76.90350
C        -16.70886       10.79604       76.33848
H        -16.73120        9.86380       79.88970
H        -16.35910        8.30644       77.44171
H        -14.37394       10.11960       78.89838
H        -15.10176       11.87362       77.29671
H        -16.43017       11.39781       78.37506
H        -14.46401        9.06183       75.99411
H        -13.32354       10.30361       76.62651
H        -13.25988        8.63258       77.25605
H        -17.45431       10.01210       76.56613
H        -17.27012       11.72546       76.10878
H        -16.13441       10.50826       75.43536
N        -14.81276        6.37028       77.98925
C        -14.07414        5.14975       78.30268
C        -12.69586        5.24037       77.65536
O        -12.41229        6.25225       77.04277
C        -14.84974        3.93542       77.73365
C        -16.32428        3.92213       78.06670
O        -17.06664        4.99386       77.71570
O        -16.85777        2.91761       78.50941
H        -15.12532        6.48621       77.01311
H        -13.94748        5.03918       79.40115
H        -14.36483        2.97910       78.02868
H        -14.80464        4.00356       76.62441
N        -11.77030        4.24648       77.75392
C        -10.45469        4.34217       77.11654
C        -10.51441        4.39859       75.58250
O         -9.87613        5.29219       75.04150
C         -9.52507        3.19602       77.55944
C         -8.16263        3.31265       76.89991
C         -7.33536        4.43175       77.12502
C         -7.72247        2.30598       76.02442
C         -6.09793        4.53708       76.47966
C         -6.48573        2.41607       75.38268
C         -5.67452        3.53046       75.60851
H        -11.99704        3.41225       78.31575
H         -9.96824        5.27678       77.47914
H         -9.99495        2.22691       77.29937
H         -9.39911        3.22348       78.66349
H         -7.64614        5.22650       77.79128
H         -8.34223        1.44050       75.82871
H         -5.46782        5.40113       76.65063
H         -6.15912        1.63809       74.70536
H         -4.71899        3.61423       75.10657
N        -11.19983        3.50355       74.79205
C        -11.13965        3.51188       73.32925
C        -11.82513        4.72208       72.71103
O        -11.75681        4.89263       71.50216
C        -11.83506        2.20504       72.93777
C        -12.88266        2.08154       74.02291
C        -12.08696        2.46365       75.27055
H        -10.08383        3.48569       72.97834
H        -12.20819        2.15940       71.89170
H        -11.12244        1.36422       73.09447
H        -13.64677        2.87151       73.83490
H        -13.40501        1.10514       74.09121
H        -12.81641        2.81822       76.02036
H        -11.48464        1.62067       75.66463
N        -12.47763        5.61522       73.49328
C        -13.09722        6.84322       73.03732
C        -12.09851        7.95784       73.27124
O        -11.76986        8.67342       72.33567
C        -14.40889        7.01217       73.82905
C        -15.39416        5.89682       73.43991
C        -16.51463        5.75771       74.42787
O        -17.25601        6.81661       74.79051
O        -16.74627        4.66749       74.92327
H        -12.52712        5.44405       74.50380
H        -13.33400        6.81501       71.94881
H        -14.88175        8.00122       73.64096
H        -14.17222        6.94774       74.91196
H        -14.89041        4.90939       73.39082
H        -15.76716        6.11588       72.42093
N        -11.50078        8.09885       74.48358
C        -10.44337        9.04445       74.74521
H         -9.58701        8.84586       74.06532
H        -10.81281       10.07931       74.60776
H        -10.08762        8.91916       75.79180
H        -11.76570        7.47305       75.24319
Ca       -19.07658        5.03274       76.68599
O        -20.70508        4.12736       78.86766
H        -19.87094        3.95007       79.37134
H        -21.16195        4.83909       79.38186

Ca 1.0



