%chk=holoCaM.loop2.water3.frame376.chk
%nprocshared=20
%mem=10GB
%nosave
#b3lyp/svp scf=(tight,noincore,xqc) Test 
#IOP(5/87=12) Density=Current Pop=(MK,readradii) iop(6/33=2) iop(6/42=6)

holoCaM.loop2.water3.frame376 

   -2  1 
C        -19.35165      103.01442       82.05863
C        -20.13805      101.94233       82.74345
O        -19.98057      100.78238       82.38735
H        -18.26867      102.79529       82.17708
H        -19.60721      103.03227       80.98011
H        -19.55814      104.01097       82.50095
N        -20.98213      102.24604       83.76926
C        -21.65361      101.20764       84.52810
C        -22.65073      100.44193       83.66435
O        -23.61914      101.03232       83.20522
C        -22.34902      101.79462       85.77470
C        -22.73656      100.70646       86.72746
O        -22.37284       99.43931       86.45718
O        -23.29619      100.98092       87.77116
H        -21.07928      103.22951       84.06578
H        -20.84926      100.53438       84.88681
H        -23.23220      102.40222       85.47989
H        -21.63722      102.44980       86.32373
N        -22.45393       99.12044       83.38547
C        -23.34832       98.34570       82.53153
C        -24.70178       98.12714       83.18845
O        -25.70035       98.57359       82.64093
C        -22.71228       96.99544       82.17427
H        -21.60331       98.66659       83.75011
H        -23.48068       98.89532       81.57182
H        -22.51539       96.38398       83.07950
H        -23.37955       96.42608       81.49237
H        -21.74523       97.16486       81.65400
N        -24.81401       97.42043       84.35357
C        -26.10300       97.14130       84.99785
C        -26.82034       98.41122       85.48055
O        -27.98027       98.31433       85.85570
C        -25.93126       96.12320       86.15705
C        -24.96358       96.63768       87.17386
O        -23.81890       95.98723       87.43344
O        -25.15072       97.72385       87.69591
H        -23.95231       97.03507       84.76815
H        -26.75730       96.65767       84.23955
H        -25.53856       95.16614       85.74745
H        -26.90893       95.91606       86.64100
N        -26.20411       99.62906       85.49218
C        -26.86691      100.88206       85.81874
C        -27.38631      100.97056       87.23576
O        -28.55242      101.28985       87.41757
H        -25.21575       99.70029       85.21562
H        -27.69288      101.06307       85.09679
H        -26.12800      101.70363       85.69463
N        -26.55818      100.74918       88.29162
C        -26.93281      100.96434       89.68646
C        -25.97583      101.95150       90.36799
O        -26.04493      102.08885       91.58169
C        -27.02298       99.60978       90.41947
C        -28.11851       98.75415       89.82187
N        -27.85129       97.53333       89.30513
O        -29.26713       99.17230       89.80927
H        -25.60575      100.41721       88.09854
H        -27.94379      101.42042       89.77168
H        -27.27874       99.77931       91.48762
H        -26.05548       99.08145       90.38478
H        -26.89848       97.14871       89.32142
H        -28.60531       96.96477       88.89166
N        -25.12603      102.74575       89.64516
C        -24.37212      103.85007       90.22576
C        -22.95407      103.51285       90.64439
O        -22.25991      104.43478       91.04831
H        -25.16292      102.71175       88.61648
H        -24.93316      104.30986       91.06867
H        -24.28557      104.64060       89.44757
N        -22.43813      102.25142       90.57379
C        -21.04662      101.93601       90.90999
C        -20.31741      101.32048       89.73306
O        -20.92678      100.67357       88.90056
C        -20.94401      101.00516       92.14129
C        -21.20558      101.75155       93.45250
O        -21.78953       99.89011       92.01779
H        -23.04652      101.48429       90.26196
H        -20.48312      102.86311       91.15196
H        -19.89842      100.63316       92.22278
H        -22.71999      100.18700       92.20228
H        -22.22572      102.18604       93.47188
H        -21.08489      101.05154       94.30652
H        -20.45956      102.56766       93.56721
N        -18.96436      101.44786       89.64897
C        -18.15754      100.89618       88.57037
C        -17.32163       99.77643       89.15430
O        -16.46644      100.04457       89.98775
C        -17.27154      102.03072       87.95233
C        -18.15029      103.10596       87.26309
C        -16.22162      101.48075       86.96801
C        -17.36891      104.37178       86.88902
H        -18.47154      101.94979       90.40350
H        -18.80038      100.46711       87.77174
H        -16.71863      102.51048       88.79112
H        -18.95496      103.42934       87.95586
H        -18.62953      102.67734       86.35449
H        -15.54904      100.77397       87.48385
H        -16.70769      100.97532       86.10898
H        -15.55488      102.27877       86.58799
H        -16.92634      104.82572       87.80198
H        -16.56145      104.17066       86.15777
H        -18.05626      105.11118       86.42816
N        -17.52116       98.48125       88.76366
C        -16.67260       97.38913       89.23228
C        -15.27162       97.56265       88.67642
O        -15.06840       98.42726       87.83854
C        -17.21837       96.02204       88.76415
C        -18.57935       95.72312       89.31811
O        -18.75135       95.60027       90.64801
O        -19.52609       95.55189       88.56669
H        -18.28821       98.27096       88.10971
H        -16.64428       97.40927       90.34487
H        -16.55013       95.20849       89.11104
H        -17.25132       96.00431       87.65156
N        -14.24055       96.78094       89.08748
C        -12.90400       96.91994       88.52322
C        -12.90969       96.56863       87.02871
O        -12.51147       97.42753       86.25794
C        -11.86818       96.15904       89.37862
C        -10.45375       96.26707       88.85613
C         -9.84829       97.51996       88.63805
C         -9.71389       95.09911       88.60334
C         -8.53342       97.59627       88.16811
C         -8.39655       95.18114       88.14436
C         -7.80737       96.42816       87.92435
H        -14.40944       96.08724       89.83389
H        -12.60822       97.99003       88.61521
H        -12.14690       95.09898       89.50164
H        -11.89013       96.60155       90.39881
H        -10.38646       98.43913       88.82761
H        -10.15159       94.12320       88.77262
H         -8.07517       98.56200       87.99718
H         -7.83176       94.27630       87.96211
H         -6.78732       96.48896       87.56802
N        -13.38931       95.38239       86.52268
C        -13.50023       95.08124       85.09502
C        -14.12560       96.19107       84.27105
O        -13.56278       96.55806       83.24803
C        -14.41480       93.84822       85.06090
C        -14.00363       93.13312       86.31930
C        -13.91430       94.28663       87.31154
H        -12.48925       94.82719       84.70521
H        -15.47787       94.14874       85.21045
H        -14.34872       93.25294       84.12542
H        -14.66650       92.30139       86.63851
H        -12.97776       92.73155       86.15072
H        -14.91144       94.57305       87.69621
H        -13.25286       93.95597       88.12830
N        -15.28766       96.77998       84.67080
C        -15.96025       97.83975       83.92367
C        -15.01538       99.00617       83.69374
O        -14.78110       99.35640       82.54539
C        -17.24468       98.28720       84.66025
C        -18.29570       97.15722       84.68302
C        -19.54618       97.52438       85.42618
O        -19.66783       98.71733       86.03406
O        -20.46340       96.72201       85.49041
H        -15.69694       96.46667       85.56460
H        -16.26494       97.45124       82.92529
H        -17.69084       99.15936       84.13157
H        -16.99042       98.59697       85.69775
H        -17.88444       96.24772       85.16526
H        -18.57168       96.90718       83.63582
N        -14.39696       99.62461       84.73306
C        -13.43512      100.68665       84.53796
H        -12.58611      100.31560       83.92373
H        -13.91417      101.54894       84.02940
H        -13.03744      101.02107       85.51977
H        -14.58821       99.31262       85.68985
Ca       -22.30297       97.57818       87.69459
O        -22.57030       95.27342       89.81853
H        -23.23941       95.49484       90.51375
H        -21.84411       94.80915       90.30414
O        -23.39166       98.75078       90.01154
H        -23.97385       97.98874       90.25316
H        -24.00109       99.43219       89.63997
O        -20.79825       97.69459       90.51156
H        -21.42790       97.38678       91.21124
H        -19.96375       97.89521       91.00367

Ca 1.0



