%chk=holoCaM.loop4.water3.frame199.chk
%nprocshared=20
%mem=10GB
%nosave
#b3lyp/svp scf=(tight,noincore,xqc) Test 
#IOP(5/87=12) Density=Current Pop=(MK,readradii) iop(6/33=2) iop(6/42=6)

holoCaM.loop4.water3.frame199 

   -3  1 
C         27.67073       44.45031      -19.88367
C         28.25432       43.07974      -19.72824
O         27.56500       42.19731      -19.24188
H         26.62623       44.47563      -19.50447
H         28.27729       45.18439      -19.31451
H         27.66465       44.72848      -20.95845
N         29.53453       42.83119      -20.12171
C         30.16457       41.51637      -20.03041
C         31.62638       41.61724      -20.42264
O         31.91126       42.03671      -21.53785
C         29.44386       40.50275      -20.94492
C         30.10707       39.15990      -20.89991
O         30.52916       38.65375      -21.92689
O         30.25706       38.52064      -19.72466
H         30.08244       43.62314      -20.49524
H         30.10122       41.16158      -18.97815
H         29.43676       40.87869      -21.99224
H         28.39361       40.36721      -20.62092
N         32.60733       41.24937      -19.54607
C         34.02917       41.38616      -19.84527
C         34.76724       40.04359      -19.87808
O         35.93326       40.05990      -20.24147
C         34.67927       42.43874      -18.88693
C         34.69635       41.97513      -17.40324
C         33.95244       43.79137      -19.05744
C         35.30371       43.00181      -16.43850
H         32.33098       40.89249      -18.61938
H         34.15268       41.79018      -20.87437
H         35.73397       42.59172      -19.20690
H         35.29486       41.04240      -17.32998
H         33.67438       41.75110      -17.04693
H         33.95409       44.09535      -20.12576
H         32.89953       43.72729      -18.70777
H         34.46116       44.60173      -18.49807
H         36.33663       43.26794      -16.74581
H         34.68500       43.92243      -16.38821
H         35.33232       42.57848      -15.41231
N         34.17673       38.85193      -19.53152
C         34.88579       37.56440      -19.60321
C         34.10807       36.44218      -20.31365
O         34.67325       35.36496      -20.45863
C         35.34002       37.12579      -18.19501
C         34.24723       36.88486      -17.19255
O         33.07311       37.06170      -17.47086
O         34.58077       36.47196      -15.95599
H         33.22134       38.86205      -19.15575
H         35.82475       37.69230      -20.18452
H         36.01093       37.90945      -17.78150
H         35.93428       36.19062      -18.28914
N         32.84212       36.59970      -20.79934
C         32.11677       35.56162      -21.53387
C         31.69558       34.33909      -20.72491
O         31.12408       33.43444      -21.31708
H         32.38798       37.51350      -20.71045
H         32.74279       35.23269      -22.39185
H         31.18410       35.99990      -21.94846
N         31.93143       34.22729      -19.38968
C         31.58946       33.04467      -18.59892
C         30.09978       32.70289      -18.55381
O         29.79150       31.52086      -18.62743
C         32.18334       33.13193      -17.17108
C         31.81942       34.33566      -16.34533
O         31.11260       35.22639      -16.77988
O         32.34834       34.45928      -15.11704
H         32.41688       34.99746      -18.91621
H         32.10183       32.16306      -19.04794
H         33.29019       33.14334      -17.26327
H         31.89871       32.21640      -16.60717
N         29.12904       33.64854      -18.39452
C         27.71517       33.31805      -18.20606
C         27.14202       33.86959      -16.90745
O         25.99501       33.57069      -16.60809
H         29.40260       34.63788      -18.41495
H         27.56609       32.21704      -18.18802
H         27.12208       33.72405      -19.05247
N         27.86121       34.70146      -16.10368
C         27.39038       35.28122      -14.85674
C         27.17362       36.80272      -15.05946
O         27.88654       37.35286      -16.14210
C         28.39598       34.93765      -13.72674
C         28.47921       33.41698      -13.49861
C         29.34582       33.05452      -12.31690
N         30.66772       33.33901      -12.30303
O         28.84582       32.47812      -11.36235
H         28.80146       34.98431      -16.38383
H         26.40091       34.87359      -14.55585
H         28.05153       35.40085      -12.77711
H         29.39950       35.34692      -13.97209
H         28.87404       32.91103      -14.40581
H         27.45131       33.03744      -13.30732
H         31.11147       33.81291      -13.09806
H         31.25232       33.07491      -11.49572
N         27.22504       37.57889      -13.81004
C         27.40419       39.03720      -13.91017
C         28.10148       39.48553      -12.64177
O         27.51642       39.44169      -11.56867
C         26.10198       39.82990      -14.26054
C         24.93114       39.61534      -13.28588
C         26.39872       41.33760      -14.36518
H         26.45901       37.30145      -13.15570
H         28.10824       39.23877      -14.73541
H         25.75913       39.48397      -15.26041
H         25.17969       39.95592      -12.26090
H         24.04817       40.19694      -13.63058
H         24.62176       38.55199      -13.25840
H         25.49265       41.89421      -14.68624
H         26.72798       41.74917      -13.38634
H         27.19179       41.52546      -15.11461
N         29.41397       39.84697      -12.69826
C         30.20600       40.18702      -11.52357
C         29.75535       41.51677      -10.94109
O         28.92561       42.18933      -11.53805
C         31.69888       40.24610      -11.95106
C         32.70796       40.31551      -10.83641
N         32.78401       39.33137       -9.91158
O         33.49812       41.24493      -10.79322
H         29.88933       39.80412      -13.61108
H         30.07520       39.37024      -10.78064
H         31.84148       41.09671      -12.65154
H         31.94041       39.31924      -12.49869
H         32.14685       38.52293       -9.94646
H         33.49365       39.37164       -9.16531
N         30.27988       41.96680       -9.77013
C         30.02273       43.30387       -9.25202
C         30.59832       44.35256      -10.20024
O         29.92970       45.33489      -10.48118
C         30.53863       43.51423       -7.80408
C         32.04116       43.55252       -7.59750
C         32.65835       44.78161       -7.30178
C         32.83879       42.39371       -7.65285
C         34.03646       44.85422       -7.08941
C         34.21810       42.46959       -7.44207
C         34.82266       43.69798       -7.16442
O         36.15519       43.75577       -6.97141
H         30.88653       41.33148       -9.24869
H         28.91963       43.44147       -9.17402
H         30.08928       42.76331       -7.11862
H         30.12329       44.49918       -7.49359
H         32.07381       45.69135       -7.24092
H         32.41558       41.42170       -7.83565
H         34.49132       45.81184       -6.87108
H         34.81680       41.56878       -7.49119
H         36.61095       44.58946       -6.78740
N         31.84143       44.18665      -10.74183
C         32.46353       45.11652      -11.68841
C         31.76091       45.17929      -13.04827
O         32.15204       46.01887      -13.84767
C         33.94524       44.73095      -11.93243
C         34.83633       44.73106      -10.67612
C         35.03712       46.10144      -10.08247
O         36.15819       46.58086      -10.02880
O         34.00152       46.79484       -9.57356
H         32.37184       43.35888      -10.44876
H         32.41930       46.13396      -11.25275
H         34.40573       45.42272      -12.67204
H         33.96490       43.70759      -12.37008
H         35.82998       44.33042      -10.97377
H         34.42862       44.04909       -9.90685
N         30.72333       44.35808      -13.38367
C         29.98916       44.45574      -14.64477
C         28.55944       44.94770      -14.41460
O         27.86300       45.18260      -15.39374
C         29.84870       43.07118      -15.29252
C         31.11645       42.26228      -15.62347
C         30.68156       40.86882      -16.03990
O         31.49123       39.79667      -15.97763
O         29.50424       40.65618      -16.27229
H         30.41326       43.65213      -12.71142
H         30.48906       45.16658      -15.33803
H         29.24856       43.16577      -16.22680
H         29.27183       42.46338      -14.55719
H         31.73013       42.17913      -14.70538
H         31.71519       42.75062      -16.41998
N         28.02617       45.07251      -13.16677
C         26.65419       45.46314      -12.94113
H         25.97115       44.73303      -13.42555
H         26.44226       45.46918      -11.84967
H         26.47558       46.47930      -13.34773
H         28.58154       44.85061      -12.33851
Ca        30.08970       37.99095      -15.94828
O         31.96022       37.36936      -13.88381
H         32.48675       37.23923      -14.70958
H         31.50181       36.50759      -13.73132
O         28.26058       36.83694      -18.90538
H         28.37473       36.53494      -19.84096
H         27.28391       36.94236      -18.79293
O         27.48130       39.70064      -17.88595
H         26.66823       39.14308      -17.82036
H         27.26515       40.49998      -17.34458

Ca 1.0



