%chk=holoCaM-CaMKII.loop2.water1.frame320.chk
%nprocshared=20
%mem=10GB
%nosave
#b3lyp/svp scf=(tight,noincore,xqc) Test 
#IOP(5/87=12) Density=Current Pop=(MK,readradii) iop(6/33=2) iop(6/42=6)

holoCaM-CaMKII.loop2.water1.frame320 

   -2  1 
C         51.77312       34.86516       51.77739
C         50.73498       34.56471       50.73002
O         50.22361       33.45758       50.66130
H         52.70798       35.21875       51.29171
H         51.39735       35.68027       52.43630
H         51.99654       33.97862       52.40363
N         50.36295       35.56184       49.89280
C         49.29849       35.49223       48.89682
C         49.55472       34.51540       47.74620
O         50.59369       34.60710       47.10776
C         49.14601       36.90402       48.31022
C         48.08251       36.95777       47.28447
O         46.82084       36.62501       47.61559
O         48.36840       37.28373       46.14367
H         50.84060       36.46899       50.02622
H         48.34361       35.23022       49.40392
H         50.10927       37.22046       47.85022
H         48.88261       37.62059       49.11630
N         48.58013       33.62888       47.36332
C         48.64013       32.82118       46.14632
C         47.32827       32.93001       45.34235
O         46.76170       31.89945       45.00786
C         48.93561       31.36266       46.52789
H         47.72609       33.56301       47.92569
H         49.47306       33.17173       45.50048
H         49.88682       31.30337       47.09686
H         48.11833       30.94954       47.15917
H         49.03716       30.73579       45.61534
N         46.78846       34.14641       45.00714
C         45.52663       34.31982       44.24218
C         45.08161       35.77952       43.98746
O         44.19454       35.96689       43.16587
C         44.34369       33.55345       44.88780
C         44.09397       33.90468       46.31980
O         44.73274       34.91698       46.92848
O         43.30264       33.23379       46.96314
H         47.33072       34.95678       45.31290
H         45.69846       33.87699       43.23691
H         44.53845       32.46806       44.85101
H         43.40271       33.70539       44.31556
N         45.61991       36.85141       44.63232
C         45.27081       38.23930       44.38218
C         43.86535       38.60635       44.79717
O         43.36511       39.60300       44.29546
H         46.32902       36.70233       45.32689
H         45.43320       38.46351       43.30663
H         45.95515       38.90350       44.95764
N         43.19214       37.91437       45.76231
C         41.83247       38.26080       46.17112
C         41.78666       39.25695       47.34079
O         40.69088       39.59043       47.76988
C         41.00835       36.98166       46.45422
C         41.38489       36.27420       47.72155
N         40.67073       35.21523       48.15153
O         42.31495       36.67605       48.39109
H         43.66123       37.12570       46.22806
H         41.31639       38.74055       45.31098
H         41.09319       36.27482       45.59940
H         39.94301       37.27441       46.55956
H         39.86806       34.85809       47.61580
H         40.91002       34.77690       49.04657
N         42.91779       39.80978       47.87570
C         42.89185       40.84964       48.90103
C         42.65009       40.37700       50.32799
O         42.64004       41.23161       51.20349
H         43.83424       39.58298       47.46492
H         42.15122       41.62850       48.61522
H         43.88875       41.34088       48.91835
N         42.48930       39.06477       50.66081
C         42.35833       38.58063       52.03881
C         43.44544       37.56893       52.36326
O         44.17623       37.15255       51.47489
C         40.96836       37.92218       52.27914
C         39.81365       38.91731       52.14624
O         40.76942       36.79898       51.45454
H         42.49415       38.37440       49.90997
H         42.46998       39.42289       52.75527
H         40.92144       37.56083       53.32794
H         40.73529       37.10892       50.51480
H         38.85404       38.40969       52.38456
H         39.95462       39.74784       52.87125
H         39.75852       39.33383       51.11992
N         43.55310       37.07343       53.62722
C         44.42813       35.96805       53.98784
C         43.52438       34.77019       54.15697
O         42.58105       34.83898       54.93586
C         45.25110       36.26766       55.27385
C         46.10047       37.55175       55.08689
C         46.13678       35.04983       55.61965
C         46.95833       37.91212       56.30415
H         42.90533       37.42099       54.35191
H         45.15264       35.75624       53.16874
H         44.54863       36.43502       56.12105
H         45.41245       38.40509       54.90219
H         46.76877       37.44679       54.20478
H         46.67831       35.20244       56.57423
H         45.51942       34.13917       55.76332
H         46.87213       34.85579       54.80959
H         47.46913       38.88120       56.12369
H         46.32944       38.00367       57.21470
H         47.74941       37.15316       56.47531
N         43.73527       33.64055       53.43249
C         42.81162       32.51447       53.44350
C         43.29378       31.47611       54.40660
O         44.34140       31.66167       55.00777
C         42.66962       31.89059       52.04014
C         42.44517       32.91677       50.98830
O         43.44064       33.80249       50.79623
O         41.46567       32.87427       50.26417
H         44.58375       33.57822       52.85190
H         41.80715       32.85757       53.77422
H         41.85545       31.13480       52.02984
H         43.61769       31.38053       51.75719
N         42.56903       30.35495       54.63045
C         42.99430       29.32944       55.55961
C         44.32150       28.68075       55.14017
O         45.21702       28.67612       55.96862
C         41.89299       28.27766       55.75800
C         42.28315       27.34896       56.87599
C         42.35397       27.82554       58.19888
C         42.61064       26.01380       56.60530
C         42.75181       26.97560       59.23216
C         43.01730       25.16919       57.64112
C         43.08793       25.64892       58.95280
H         41.66398       30.24558       54.14380
H         43.13945       29.82695       56.54597
H         41.73002       27.72976       54.80960
H         40.92975       28.76678       56.02552
H         42.10202       28.85416       58.43008
H         42.57191       25.63575       55.59139
H         42.80487       27.34808       60.24734
H         43.28372       24.14401       57.42452
H         43.40520       24.99366       59.75249
N         44.55677       28.12724       53.90056
C         45.83573       27.51785       53.53905
C         46.98197       28.51234       53.57372
O         48.10922       28.09727       53.80974
C         45.58657       26.93803       52.13820
C         44.51589       27.84915       51.57707
C         43.62217       28.08184       52.79248
H         46.09499       26.68030       54.22242
H         46.49022       26.80949       51.50175
H         45.10459       25.94294       52.26195
H         45.00000       28.81313       51.30715
H         43.98230       27.46248       50.68108
H         43.06854       29.02161       52.61660
H         42.92451       27.23130       52.94815
N         46.77971       29.83516       53.35227
C         47.84971       30.82475       53.40328
C         48.30920       31.03417       54.84075
O         49.50386       31.13820       55.07655
C         47.38758       32.13687       52.74233
C         46.98406       31.86884       51.27310
C         46.47231       33.07350       50.55422
O         46.03069       32.93740       49.42618
O         46.45627       34.28863       51.13481
H         45.82306       30.15246       53.13494
H         48.71281       30.48026       52.78973
H         48.21740       32.87804       52.76163
H         46.52998       32.55256       53.30732
H         46.16745       31.12164       51.23127
H         47.85050       31.45824       50.70852
N         47.40629       31.06092       55.86057
C         47.77515       31.19461       57.25251
H         48.31432       32.14913       57.41833
H         46.85852       31.18995       57.88416
H         48.41046       30.33746       57.56111
H         46.41385       30.94464       55.65102
Ca        44.12737       34.98075       49.05816
O         45.54154       38.47202       49.42529
H         46.15810       39.05645       48.91907
H         46.08010       38.15863       50.19447

Ca 1.0



