%chk=holoCaM.loop2.water2.frame69.chk
%nprocshared=20
%mem=10GB
%nosave
#b3lyp/svp scf=(tight,noincore,xqc) Test 
#IOP(5/87=12) Density=Current Pop=(MK,readradii) iop(6/33=2) iop(6/42=6)

holoCaM.loop2.water2.frame69 

   -2  1 
C         74.60558       28.75669       20.88160
C         73.38946       29.59578       20.60256
O         72.35192       29.37508       21.20687
H         75.42713       29.41101       21.24826
H         74.39781       27.99243       21.66043
H         74.94048       28.24963       19.95343
N         73.47367       30.62172       19.71493
C         72.39973       31.57985       19.47136
C         71.19669       30.99650       18.74148
O         71.37378       30.28008       17.76659
C         72.93656       32.76213       18.64839
C         71.88156       33.81851       18.50430
O         71.50157       34.16855       17.39902
O         71.31633       34.34457       19.60659
H         74.38588       30.77860       19.25725
H         72.08905       32.00138       20.44891
H         73.27624       32.41251       17.64849
H         73.80211       33.21187       19.17878
N         69.93706       31.39878       19.09408
C         68.72169       31.04127       18.36764
C         67.90250       32.25859       17.90565
O         66.89546       32.04044       17.24586
C         67.84736       30.18047       19.28163
H         69.83811       32.00879       19.91324
H         68.97836       30.44262       17.46723
H         67.55005       30.75650       20.18531
H         66.92938       29.85106       18.74979
H         68.41020       29.27893       19.60182
N         68.21879       33.54656       18.24647
C         67.37892       34.70274       17.93087
C         68.12263       35.76985       17.13112
O         67.65376       36.09792       16.04901
C         66.71044       35.25338       19.22021
C         67.57278       35.32112       20.45820
O         68.55252       36.03703       20.51541
O         67.23876       34.58780       21.53724
H         69.04867       33.72789       18.81794
H         66.52070       34.40553       17.28535
H         65.88689       34.55217       19.47602
H         66.24188       36.24114       19.01214
N         69.25625       36.37435       17.58570
C         69.93534       37.44811       16.87147
C         70.02206       38.72910       17.68411
O         70.63434       39.67042       17.19920
H         69.67387       36.06532       18.46950
H         69.43511       37.68859       15.90891
H         70.96796       37.10903       16.63936
N         69.45683       38.85115       18.92475
C         69.56833       40.05397       19.75247
C         70.99785       40.33849       20.24863
O         71.18124       41.31802       20.95793
C         68.55856       40.00201       20.92901
C         68.78527       38.94900       21.98527
N         67.94463       38.88966       23.04379
O         69.71403       38.16087       21.90484
H         68.88686       38.07896       19.28486
H         69.24131       40.92010       19.13588
H         67.53902       39.85084       20.50959
H         68.56783       40.98833       21.43994
H         67.15433       39.54535       23.12547
H         68.08162       38.19942       23.79139
N         72.06249       39.56532       19.88224
C         73.44739       39.84999       20.21943
C         73.87871       39.43316       21.60997
O         75.06399       39.55809       21.88098
H         71.92185       38.78626       19.23639
H         73.67622       40.92073       20.02850
H         74.08475       39.25262       19.53062
N         73.01628       38.92587       22.53875
C         73.45254       38.47724       23.86219
C         73.00021       37.05408       24.13802
O         72.08758       36.58107       23.48840
C         72.89287       39.42268       24.94899
C         73.47084       40.83103       24.79244
O         71.49099       39.50104       24.86832
H         72.01620       38.87142       22.31791
H         74.56263       38.48494       23.92857
H         73.19532       39.06354       25.96042
H         71.12577       38.66215       25.25246
H         74.57833       40.80108       24.87737
H         73.19742       41.26503       23.80700
H         73.07330       41.49367       25.58918
N         73.60959       36.31633       25.10966
C         73.17563       34.98009       25.52444
C         71.87654       35.08877       26.31758
O         71.83060       35.82754       27.29145
C         74.32347       34.27665       26.33512
C         75.47038       33.91098       25.34621
C         73.83302       33.01279       27.07301
C         76.72391       33.31692       25.99270
H         74.42723       36.73272       25.58108
H         72.99583       34.33479       24.63648
H         74.69883       34.97644       27.11467
H         75.78973       34.82138       24.79671
H         75.08934       33.17779       24.59960
H         74.64788       32.55046       27.66586
H         73.05035       33.27699       27.81246
H         73.43117       32.26269       26.36109
H         77.47446       33.10724       25.20004
H         77.16257       34.03539       26.71511
H         76.51316       32.35484       26.50113
N         70.81265       34.28949       26.00026
C         69.60440       34.17013       26.81272
C         69.73615       32.90730       27.65088
O         70.71384       32.19752       27.48416
C         68.32055       34.12789       25.93844
C         67.99601       35.44244       25.26166
O         68.78236       35.96221       24.29733
O         66.99636       36.05674       25.59940
H         70.93868       33.59615       25.25062
H         69.53206       35.01417       27.53363
H         67.46612       33.89197       26.60939
H         68.38396       33.31281       25.18433
N         68.84511       32.59163       28.63195
C         69.06550       31.46083       29.53170
C         69.06298       30.10952       28.81540
O         70.03478       29.39235       28.99961
C         68.10766       31.48257       30.74074
C         68.40464       30.34049       31.69154
C         69.67625       30.20541       32.28457
C         67.41388       29.38711       31.98026
C         69.94934       29.13196       33.13623
C         67.69043       28.31883       32.83908
C         68.95746       28.18941       33.41362
H         68.04276       33.21878       28.79817
H         70.07822       31.59854       29.97259
H         67.05483       31.44110       30.40940
H         68.23830       32.44309       31.28471
H         70.46282       30.92137       32.08522
H         66.42891       29.46690       31.53797
H         70.93193       29.03029       33.57937
H         66.92261       27.58814       33.05599
H         69.17121       27.35880       34.07353
N         68.05388       29.67109       27.99346
C         68.09161       28.40044       27.26780
C         69.42224       28.15081       26.58369
O         69.96811       27.06014       26.67114
C         66.99680       28.57582       26.20194
C         65.98219       29.41213       26.93924
C         66.87380       30.43479       27.63724
H         67.83422       27.57028       27.96237
H         67.36685       29.21296       25.36500
H         66.61716       27.62512       25.77030
H         65.17761       29.85302       26.31286
H         65.51811       28.75966       27.71387
H         67.17722       31.25552       26.95047
H         66.31340       30.83782       28.49830
N         69.99885       29.16696       25.89558
C         71.25329       29.08516       25.15705
C         72.38899       28.75997       26.11359
O         73.10536       27.79773       25.87738
C         71.45226       30.40032       24.35747
C         70.26440       30.55980       23.36925
C         70.16231       31.86550       22.66444
O         71.15236       32.76526       22.63890
O         69.08081       32.18015       22.19271
H         69.50527       30.07100       25.92600
H         71.18956       28.27451       24.39715
H         72.40965       30.38308       23.79406
H         71.48017       31.25803       25.06373
H         69.31308       30.51735       23.92811
H         70.22422       29.73128       22.63434
N         72.55405       29.46540       27.26481
C         73.53415       29.11530       28.26891
H         74.55908       29.21709       27.85965
H         73.42619       29.78616       29.14961
H         73.36458       28.07139       28.61216
H         71.92439       30.24347       27.46928
Ca        70.28338       34.71928       23.21444
O         74.31595       34.39714       22.18323
H         74.66361       33.83805       21.44473
H         73.33875       34.24065       22.17163
O         72.39336       36.64713       20.38834
H         73.26009       36.26568       20.66890
H         72.41639       36.59524       19.39924

Ca 1.0



