%chk=holoCaM.loop2.water1.frame262.chk
%nprocshared=20
%mem=10GB
%nosave
#b3lyp/svp scf=(tight,noincore,xqc) Test 
#IOP(5/87=12) Density=Current Pop=(MK,readradii) iop(6/33=2) iop(6/42=6)

holoCaM.loop2.water1.frame262 

   -2  1 
C         48.49012        7.50097       56.71490
C         47.63666        6.89866       55.62991
O         46.42059        6.99011       55.69020
H         49.17463        8.25614       56.26721
H         47.87203        8.01015       57.48400
H         49.10434        6.71467       57.20070
N         48.23939        6.31132       54.56387
C         47.53725        5.83716       53.37288
C         46.83837        4.49495       53.56272
O         47.45227        3.56713       54.07090
C         48.55468        5.71629       52.22867
C         47.90357        5.26946       50.95755
O         46.87552        5.96858       50.43918
O         48.29317        4.25530       50.40405
H         49.27239        6.31474       54.55470
H         46.80885        6.61321       53.04723
H         49.35902        5.00015       52.50750
H         49.01331        6.71369       52.05501
N         45.57807        4.30654       53.06102
C         44.85873        3.03455       53.09573
C         44.40479        2.52522       51.71236
O         43.84149        1.43919       51.68047
C         43.62597        3.21110       53.98865
H         45.10431        5.10979       52.63257
H         45.49992        2.24665       53.54730
H         42.94786        3.98212       53.56084
H         43.06566        2.25707       54.08723
H         43.93782        3.53855       55.00317
N         44.54214        3.24463       50.55139
C         43.92111        2.82807       49.27819
C         44.76223        3.09892       48.01919
O         44.29624        2.77271       46.93568
C         42.52281        3.47015       49.16103
C         42.52905        4.96638       49.15818
O         43.67802        5.65720       49.20386
O         41.46893        5.57104       49.16379
H         44.94418        4.18554       50.61444
H         43.73935        1.73083       49.29294
H         41.92217        3.14173       50.03758
H         42.00804        3.11353       48.24313
N         46.01045        3.64154       48.07312
C         46.88681        3.79762       46.91670
C         46.53355        4.89922       45.92623
O         47.28037        5.03793       44.96714
H         46.41126        3.85488       48.98771
H         46.95436        2.82444       46.38231
H         47.90564        4.04037       47.28902
N         45.45387        5.72451       46.05924
C         45.13424        6.76409       45.07023
C         46.10887        7.95966       45.06051
O         45.90807        8.85382       44.24977
C         43.67187        7.24369       45.23395
C         43.38338        7.97612       46.51301
N         42.13881        8.44214       46.76044
O         44.26936        8.15856       47.32810
H         44.80771        5.56980       46.84433
H         45.16275        6.29171       44.06282
H         43.00027        6.35966       45.17411
H         43.41794        7.92091       44.38959
H         41.37754        8.29587       46.08184
H         41.93631        8.95334       47.63061
N         47.19079        8.04183       45.89203
C         48.17410        9.12013       45.82982
C         47.77004       10.42538       46.50094
O         48.59299       11.33012       46.50253
H         47.39651        7.26558       46.53247
H         48.47228        9.29434       44.77269
H         49.08438        8.78364       46.37217
N         46.56916       10.59962       47.12338
C         46.20316       11.81015       47.86484
C         45.89811       11.47679       49.32135
O         45.85402       10.30773       49.67719
C         44.97815       12.49848       47.20419
C         45.30932       13.06109       45.81444
O         43.87019       11.62986       47.15333
H         45.89006        9.83530       47.09823
H         47.04726       12.53330       47.87603
H         44.67998       13.37803       47.81316
H         43.99274       11.01191       46.38556
H         44.41577       13.57095       45.39456
H         46.12947       13.80631       45.89571
H         45.62271       12.25527       45.11848
N         45.63071       12.47444       50.21563
C         45.19669       12.22659       51.58646
C         43.71782       12.54363       51.63407
O         43.31625       13.63364       51.24884
C         45.98005       13.06272       52.64523
C         47.50788       12.83004       52.54231
C         45.47582       12.69887       54.06183
C         48.31546       13.63812       53.56791
H         45.64400       13.45200       49.88726
H         45.34418       11.15531       51.85085
H         45.77776       14.14156       52.46502
H         47.84546       13.13981       51.53076
H         47.74447       11.75165       52.67587
H         45.71345       11.63929       54.29544
H         45.92540       13.34368       54.84104
H         44.38387       12.84788       54.14993
H         48.10766       13.30289       54.60541
H         49.40076       13.48862       53.39398
H         48.08367       14.72092       53.48103
N         42.84909       11.61805       52.11027
C         41.40361       11.79327       52.14052
C         41.00458       12.26652       53.51376
O         41.87524       12.47303       54.34131
C         40.72818       10.44139       51.83259
C         41.20994        9.83958       50.54926
O         42.53346        9.69676       50.36864
O         40.42218        9.38200       49.73722
H         43.23412       10.74892       52.50791
H         41.08094       12.55052       51.39254
H         39.62070       10.52138       51.82168
H         41.01201        9.72812       52.63919
N         39.70666       12.48564       53.83840
C         39.31454       12.91837       55.17053
C         39.65936       11.87690       56.24723
O         40.33168       12.26299       57.19279
C         37.83206       13.32530       55.19620
C         37.44151       13.90568       56.53476
C         38.09228       15.04852       57.04161
C         36.42115       13.30848       57.29043
C         37.73281       15.57238       58.28519
C         36.06034       13.84087       58.53141
C         36.71695       14.96963       59.02955
H         38.98377       12.36197       53.11209
H         39.88693       13.84659       55.39098
H         37.19446       12.45799       54.93556
H         37.66286       14.10426       54.42058
H         38.88013       15.53624       56.48177
H         35.90527       12.43187       56.91948
H         38.24238       16.44650       58.67054
H         35.27161       13.37650       59.10754
H         36.43812       15.37834       59.99159
N         39.28461       10.55249       56.19581
C         39.60283        9.57667       57.24143
C         41.08329        9.19733       57.31517
O         41.42461        8.36376       58.14297
C         38.71216        8.38077       56.88912
C         38.69041        8.44001       55.38063
C         38.51479        9.93612       55.13249
H         39.29759        9.94596       58.24516
H         39.01346        7.40953       57.33757
H         37.67506        8.60907       57.22712
H         39.70058        8.13512       55.02194
H         37.92904        7.80087       54.88540
H         38.89404       10.15065       54.11739
H         37.45303       10.24292       55.23537
N         42.02062        9.80168       56.53698
C         43.45520        9.57200       56.63656
C         44.10146       10.76128       57.33166
O         44.91069       10.55315       58.22446
C         44.04430        9.35421       55.23265
C         43.43703        8.11495       54.55274
C         43.96417        7.86927       53.16812
O         44.82932        8.57685       52.67518
O         43.45377        6.85050       52.45439
H         41.72184       10.50436       55.85599
H         43.68791        8.66747       57.24306
H         45.14599        9.22998       55.31087
H         43.83811       10.24974       54.61494
H         42.33809        8.24554       54.46895
H         43.64252        7.21230       55.16824
N         43.74044       12.03919       57.02795
C         44.27474       13.19396       57.71138
H         45.36357       13.27664       57.52144
H         43.77313       14.11374       57.33699
H         44.08073       13.11325       58.80210
H         43.02686       12.21212       56.31902
Ca        43.38981        7.76662       49.76985
O         47.57196        8.28044       49.02090
H         47.77376        8.52970       49.95750
H         48.19856        7.54270       48.81776

Ca 1.0



