%chk=holoCaM.loop4.water3.frame11.chk
%nprocshared=20
%mem=10GB
%nosave
#b3lyp/svp scf=(tight,noincore,xqc) Test 
#IOP(5/87=12) Density=Current Pop=(MK,readradii) iop(6/33=2) iop(6/42=6)

holoCaM.loop4.water3.frame11 

   -3  1 
C         81.70403       39.49011       59.07892
C         82.06954       40.35860       57.91152
O         81.30137       40.43134       56.96483
H         80.71584       39.00714       58.91607
H         82.47325       38.70751       59.23231
H         81.63302       40.11977       59.99256
N         83.21106       41.10487       57.94883
C         83.52419       42.11703       56.94821
C         84.99925       42.13845       56.57785
O         85.82858       42.20972       57.47206
C         83.12520       43.48291       57.52366
C         83.40110       44.57132       56.53193
O         82.93454       44.49757       55.40776
O         84.19834       45.60450       56.86118
H         83.79074       41.06358       58.80093
H         82.91497       41.96881       56.03378
H         83.66971       43.68641       58.47139
H         82.03697       43.46972       57.74802
N         85.38136       42.20125       55.26284
C         86.77732       42.37048       54.84801
C         87.02764       43.70904       54.13890
O         88.19053       43.97477       53.85192
C         87.25087       41.17544       53.96087
C         86.54535       41.14743       52.57737
C         87.06911       39.84873       54.72058
C         87.09850       40.08720       51.62218
H         84.65560       42.16940       54.53493
H         87.42819       42.38555       55.74868
H         88.34049       41.31439       53.77852
H         86.68766       42.12770       52.07400
H         85.46128       40.97512       52.70407
H         87.50835       38.99976       54.15982
H         87.58791       39.89562       55.70096
H         85.99175       39.63846       54.89459
H         86.91966       39.06215       52.00346
H         86.58505       40.17280       50.64082
H         88.18725       40.24062       51.46392
N         86.02871       44.57779       53.78424
C         86.26784       45.80862       53.02479
C         85.72033       47.07451       53.69581
O         86.50674       47.98766       53.89926
C         85.81797       45.66991       51.54776
C         84.39599       45.27971       51.23934
O         83.52030       44.94061       52.19696
O         84.04328       45.22370       50.07251
H         85.05505       44.33057       53.99713
H         87.36453       45.98176       52.92787
H         86.45852       44.89709       51.06864
H         86.03044       46.63782       51.04205
N         84.40667       47.22501       54.04705
C         83.85600       48.46062       54.60518
C         82.64693       48.99387       53.83689
O         82.10306       50.00645       54.25679
H         83.76735       46.43277       53.94990
H         84.62308       49.26248       54.65170
H         83.52352       48.25078       55.64398
N         82.14763       48.36419       52.73283
C         80.94570       48.77826       51.98793
C         79.61620       48.68761       52.77220
O         78.58455       49.00343       52.19518
C         80.83046       47.93002       50.69611
C         80.71779       46.44704       50.95386
O         80.73966       45.96566       52.21330
O         80.65478       45.67454       50.01257
H         82.66817       47.55349       52.37435
H         81.07924       49.83589       51.66868
H         81.74190       48.10105       50.08153
H         79.95559       48.26817       50.09980
N         79.55660       48.30484       54.07754
C         78.34664       48.29140       54.89061
C         77.39967       47.10662       54.71508
O         76.45596       47.05304       55.49115
H         80.42935       48.13013       54.57397
H         77.80193       49.25343       54.77145
H         78.67212       48.24076       55.95298
N         77.54772       46.12984       53.76827
C         76.63147       44.98333       53.65665
C         77.38052       43.66304       53.62017
O         78.21296       43.47979       52.74589
C         75.77865       45.08231       52.38243
C         74.71519       46.18124       52.49614
C         73.83149       46.19238       51.27824
N         74.33759       46.49806       50.06200
O         72.64444       45.92349       51.39064
H         78.31089       46.20942       53.08261
H         75.92386       44.94656       54.51388
H         75.22848       44.12152       52.25418
H         76.43339       45.22959       51.49564
H         75.18290       47.17899       52.62824
H         74.08757       45.96622       53.39122
H         75.33307       46.73916       49.95213
H         73.73012       46.50231       49.22966
N         77.07538       42.66356       54.50263
C         77.71680       41.34756       54.47383
C         77.42148       40.65404       53.14945
O         76.27718       40.30107       52.89773
C         77.24092       40.45786       55.67009
C         77.86400       39.05026       55.62846
C         77.57912       41.09462       57.02968
H         76.34955       42.84836       55.20997
H         78.81311       41.49121       54.57142
H         76.13532       40.34169       55.60993
H         77.49398       38.44032       56.48042
H         77.57306       38.51528       54.70442
H         78.97169       39.10568       55.68285
H         77.10715       42.08939       57.15100
H         77.20047       40.45191       57.85361
H         78.67649       41.20555       57.14756
N         78.42291       40.43590       52.24971
C         78.22778       39.71861       50.98973
C         78.10110       38.22013       51.25839
O         78.28313       37.79824       52.39127
C         79.42347       40.04533       50.05694
C         79.37658       39.44327       48.67414
N         78.34661       39.69512       47.83363
O         80.29889       38.73632       48.29819
H         79.35790       40.81619       52.46368
H         77.30215       40.09907       50.50472
H         80.36804       39.73367       50.55566
H         79.44926       41.14656       49.92613
H         77.56213       40.29625       48.12160
H         78.33293       39.27976       46.88990
N         77.77504       37.34955       50.26184
C         77.73132       35.90133       50.45272
C         79.12476       35.35823       50.73706
O         79.26626       34.50564       51.59901
C         77.05105       35.20235       49.25220
C         77.81851       35.25249       47.95450
C         78.89386       34.37452       47.73456
C         77.44698       36.14911       46.94054
C         79.59160       34.40043       46.52577
C         78.15253       36.18046       45.73461
C         79.22428       35.30668       45.52147
O         79.88830       35.34238       44.34913
H         77.53413       37.72920       49.33730
H         77.06399       35.67801       51.31633
H         76.05904       35.68941       49.12237
H         76.83914       34.13649       49.48981
H         79.18500       33.66070       48.49548
H         76.61808       36.83055       47.08654
H         80.41405       33.71346       46.37109
H         77.86232       36.88268       44.96380
H         80.62834       34.74792       44.16020
N         80.20591       35.82283       50.04155
C         81.58028       35.37462       50.26991
C         82.12281       35.80118       51.64433
O         83.21004       35.36705       51.99658
C         82.47748       35.90466       49.11958
C         83.89371       35.30521       49.08724
C         84.65427       35.80231       47.89159
O         84.90828       37.11757       47.75068
O         85.05678       35.01652       47.04853
H         80.03270       36.50668       49.29320
H         81.57685       34.26382       50.20676
H         82.53141       37.01511       49.17003
H         81.98962       35.62538       48.15832
H         83.81576       34.19629       49.04166
H         84.47296       35.58684       49.98725
N         81.42180       36.61791       52.48732
C         81.88829       37.01608       53.81414
C         81.07638       36.34850       54.91810
O         81.43178       36.51251       56.07730
C         81.77649       38.54383       53.97675
C         82.62694       39.33519       52.97451
C         82.42816       40.82102       53.12305
O         81.65284       41.27563       53.94905
O         83.10279       41.66432       52.32260
H         80.50673       36.96991       52.19627
H         82.94403       36.70074       53.96496
H         82.09853       38.82884       55.00224
H         80.70750       38.83029       53.85086
H         82.34856       39.05671       51.93697
H         83.69976       39.09582       53.13648
N         79.98414       35.57949       54.65153
C         79.23244       34.90848       55.68629
H         78.38288       34.35422       55.23123
H         79.88624       34.18104       56.21191
H         78.83044       35.64919       56.40808
H         79.65813       35.45903       53.69117
Ca        80.91274       43.77694       52.70257
O         81.69004       42.52496       49.91093
H         80.86702       43.06392       50.01712
H         82.41717       43.12759       50.20390
O         79.80642       43.40643       55.89436
H         80.51026       42.71283       55.87830
H         79.69690       43.62999       56.85172
O         80.69463       45.92307       55.40264
H         81.49602       46.48152       55.56586
H         80.10380       46.11670       56.17127

Ca 1.0



