%chk=holoCaM-CaMKII.loop2.water2.frame149.chk
%nprocshared=20
%mem=10GB
%nosave
#b3lyp/svp scf=(tight,noincore,xqc) Test 
#IOP(5/87=12) Density=Current Pop=(MK,readradii) iop(6/33=2) iop(6/42=6)

holoCaM-CaMKII.loop2.water2.frame149 

   -2  1 
C        116.27916      104.43380       47.96792
C        116.70424      105.63686       47.17639
O        115.96360      106.09352       46.31791
H        115.27533      104.07944       47.65356
H        117.01603      103.61425       47.83974
H        116.23258      104.70701       49.04536
N        117.89168      106.23189       47.46101
C        118.33377      107.48070       46.85477
C        118.66011      107.32327       45.37004
O        119.45532      106.45887       45.02831
C        119.58417      107.99033       47.60204
C        119.89028      109.42870       47.31287
O        120.99326      109.98889       47.84168
O        119.11320      110.11539       46.66966
H        118.46493      105.81540       48.21230
H        117.52469      108.22816       47.01392
H        120.45608      107.34961       47.34737
H        119.41988      107.93465       48.69921
N        118.11687      108.16485       44.44232
C        118.39212      108.09765       43.00780
C        119.04917      109.37605       42.46051
O        119.19602      109.46075       41.24848
C        117.07204      107.81357       42.27798
H        117.47065      108.89534       44.76679
H        119.07604      107.25403       42.76845
H        117.24336      107.70634       41.18466
H        116.63727      106.85862       42.64548
H        116.33841      108.62954       42.44828
N        119.51425      110.38415       43.26771
C        120.11699      111.62174       42.73208
C        120.90988      112.49817       43.73787
O        121.43908      113.50890       43.29566
C        119.01619      112.47356       42.05161
C        117.96630      112.91249       43.02700
O        118.09956      112.63019       44.33253
O        116.97678      113.51075       42.63687
H        119.43611      110.24384       44.27322
H        120.86528      111.33116       41.96236
H        118.51829      111.87529       41.26102
H        119.45381      113.37163       41.56594
N        121.09362      112.18368       45.05663
C        121.96049      112.93434       45.95918
C        121.50008      114.32482       46.37388
O        122.27541      114.97786       47.05830
H        120.71442      111.31986       45.43547
H        122.96197      113.01258       45.48425
H        122.08838      112.35418       46.89886
N        120.29387      114.86277       46.02818
C        119.92868      116.24474       46.37037
C        119.82727      116.54748       47.87547
O        119.73293      117.72037       48.21034
C        118.62213      116.66668       45.65393
C        117.39962      115.88019       46.06256
N        116.19335      116.17482       45.52948
O        117.48896      114.97332       46.87181
H        119.65122      114.30501       45.45111
H        120.73781      116.89342       45.96641
H        118.75890      116.54864       44.55744
H        118.42970      117.74184       45.86060
H        116.09186      116.93387       44.84117
H        115.35709      115.64407       45.81167
N        119.81440      115.57168       48.82993
C        119.77241      115.83266       50.26692
C        118.49021      115.36726       50.94406
O        118.43936      115.41559       52.16431
H        119.84771      114.59231       48.53599
H        119.88716      116.91451       50.49507
H        120.63671      115.30657       50.72598
N        117.39608      114.97353       50.23081
C        116.11267      114.59205       50.82430
C        115.65200      113.23170       50.31913
O        116.28948      112.65725       49.45062
C        115.04322      115.66113       50.45195
C        115.29931      116.98291       51.17464
O        115.02732      115.89952       49.06549
H        117.44493      115.00191       49.20972
H        116.18597      114.52315       51.93149
H        114.02947      115.34318       50.78308
H        114.63410      115.09916       48.63108
H        115.26065      116.82443       52.27406
H        116.28710      117.40677       50.90040
H        114.50818      117.71512       50.90374
N        114.48191      112.69933       50.78401
C        113.84819      111.51984       50.20745
C        112.64330      112.03007       49.44641
O        111.75145      112.62042       50.04070
C        113.44364      110.47970       51.28820
C        114.68813      109.98618       52.06598
C        112.69701      109.29548       50.63036
C        114.33771      109.08571       53.25419
H        113.95564      113.21528       51.50486
H        114.53945      111.01972       49.49324
H        112.75378      110.97898       52.00443
H        115.23256      110.86249       52.47779
H        115.37496      109.44245       51.38120
H        111.79550      109.64544       50.08730
H        113.35684      108.76710       49.90860
H        112.33228      108.57175       51.38434
H        113.66905      109.62639       53.95770
H        113.84593      108.14683       52.93069
H        115.26629      108.80560       53.79361
N        112.60051      111.89468       48.09732
C        111.55942      112.49129       47.26853
C        110.30460      111.65959       47.34307
O        110.29961      110.62864       48.00083
C        112.03736      112.56942       45.80508
C        113.28097      113.39699       45.66120
O        113.37781      114.22726       44.77200
O        114.32914      113.13650       46.45693
H        113.37949      111.40031       47.64263
H        111.35844      113.53095       47.61145
H        111.26002      112.98675       45.13324
H        112.26928      111.53906       45.46527
N        109.18640      112.04738       46.67901
C        107.97629      111.24848       46.67986
C        108.19008      109.90522       45.96767
O        107.94967      108.89491       46.61264
C        106.80069      112.03752       46.07520
C        105.51103      111.26885       46.20210
C        104.86179      110.77827       45.05879
C        104.94900      111.03213       47.46980
C        103.67107      110.05706       45.18257
C        103.75404      110.31850       47.58811
C        103.11630      109.82946       46.44537
H        109.19345      112.94929       46.17712
H        107.70388      111.05695       47.74311
H        107.01075      112.28176       45.02113
H        106.68189      113.00931       46.60245
H        105.28321      110.94328       44.07498
H        105.43074      111.40640       48.36505
H        103.17899      109.67425       44.29859
H        103.32336      110.14490       48.56595
H        102.19253      109.27419       46.53867
N        108.62356      109.77615       44.66493
C        108.72982      108.48619       43.99154
C        109.89218      107.64059       44.49007
O        109.98045      106.48815       44.08789
C        108.87219      108.86588       42.51388
C        109.67436      110.14602       42.60329
C        108.98703      110.85662       43.76774
H        107.79334      107.90027       44.12081
H        109.28292      108.07531       41.85005
H        107.86575      109.15290       42.12989
H        110.70987      109.87189       42.91032
H        109.72941      110.74804       41.67113
H        109.70286      111.57559       44.20556
H        108.06852      111.36329       43.41301
N        110.81993      108.12910       45.35794
C        111.85748      107.30201       45.95752
C        111.24404      106.53169       47.10597
O        111.33428      105.31266       47.12592
C        113.03751      108.17698       46.42485
C        113.70701      108.84302       45.20777
C        114.86555      109.72241       45.56504
O        115.44655      110.32247       44.67656
O        115.27557      109.86307       46.83991
H        110.77265      109.11768       45.64385
H        112.27744      106.58973       45.20965
H        113.78735      107.53796       46.94011
H        112.68415      108.95006       47.14205
H        112.96405      109.46462       44.66771
H        114.07402      108.05713       44.51148
N        110.55620      107.19552       48.07733
C        109.88600      106.55031       49.18521
H        108.79591      106.75555       49.11735
H        110.03841      105.45170       49.19040
H        110.26791      106.97092       50.13843
H        110.46925      108.21654       48.01476
Ca       116.32162      112.83589       45.59758
O        118.86826      112.37640       48.40128
H        118.89740      112.56188       49.37356
H        119.81902      112.29714       48.14207
O        117.54404      110.07628       49.39912
H        116.69179      109.70876       49.05796
H        117.73989      109.54706       50.21120

Ca 1.0



