%chk=holoCaM-CaMKII.loop3.water2.frame205.chk
%nprocshared=20
%mem=10GB
%nosave
#b3lyp/svp scf=(tight,noincore,xqc) Test 
#IOP(5/87=12) Density=Current Pop=(MK,readradii) iop(6/33=2) iop(6/42=6)

holoCaM-CaMKII.loop3.water2.frame205 

   0  1 
C         29.36938       79.89972       28.33000
C         30.48633       79.94827       27.32710
O         31.62025       79.68422       27.68920
H         28.39277       80.14512       27.85992
H         29.30139       78.88044       28.76382
H         29.56012       80.63310       29.14075
N         30.23341       80.30415       26.04078
C         31.23551       80.37823       24.98653
C         31.41028       81.84122       24.62583
O         31.10082       82.26086       23.52193
C         30.77654       79.44714       23.84324
C         31.54467       79.51080       22.55161
O         30.93504       79.79144       21.53217
O         32.85688       79.22925       22.43986
H         29.26690       80.56163       25.78606
H         32.23386       80.02054       25.32496
H         29.71637       79.68452       23.60549
H         30.81550       78.40283       24.20680
N         31.93890       82.67791       25.56593
C         32.26751       84.08872       25.34731
C         33.47376       84.28823       24.42018
O         33.80663       85.43302       24.14664
C         32.57359       84.74741       26.71090
C         31.30225       84.86375       27.57622
C         31.60082       85.41159       28.98316
C         32.28441       84.39709       29.92372
N         31.38103       83.30584       30.30438
H         32.13119       82.27475       26.49684
H         31.39247       84.60761       24.89670
H         32.95944       85.78067       26.56453
H         33.36822       84.15668       27.21428
H         30.75605       83.90286       27.64878
H         30.62781       85.58012       27.05782
H         30.65056       85.72808       29.46428
H         32.23830       86.31670       28.87885
H         32.57973       84.93580       30.85057
H         33.21106       83.98686       29.47021
H         31.09296       82.73923       29.47695
H         31.87138       82.67337       30.97677
H         30.53260       83.69533       30.77768
N         34.16351       83.23922       23.89007
C         35.28458       83.36057       22.95660
C         34.87096       82.87753       21.56015
O         35.66728       83.00231       20.64011
C         36.56084       82.65052       23.50652
C         36.26491       81.31597       24.13529
O         35.65311       81.26916       25.19123
O         36.52345       80.16690       23.50108
H         33.84920       82.28765       24.10627
H         35.55704       84.42773       22.80114
H         37.02890       83.27179       24.30045
H         37.30579       82.55576       22.68641
N         33.60649       82.42490       21.30601
C         33.05427       82.20049       19.98219
C         33.61405       81.03973       19.19819
O         33.13147       80.84964       18.08967
H         32.93543       82.34318       22.07020
H         33.16856       83.13263       19.38733
H         31.96300       82.01083       20.09058
N         34.61076       80.22273       19.65009
C         35.13865       79.15415       18.80210
C         34.12025       78.04613       18.52547
O         34.36747       77.25052       17.63039
C         36.47425       78.59622       19.34340
C         36.40184       77.91067       20.68398
N         37.52427       77.40939       21.24597
O         35.34089       77.80552       21.27148
H         35.03748       80.39674       20.57081
H         35.38803       79.62404       17.82373
H         37.18908       79.44313       19.43118
H         36.88535       77.87427       18.60570
H         38.43264       77.49094       20.76710
H         37.48567       76.94136       22.16304
N         32.96424       77.92758       19.24437
C         31.92191       76.95643       18.94966
C         31.75104       75.90407       20.02357
O         30.82296       75.11783       19.89338
H         32.79091       78.56085       20.03320
H         32.11789       76.41947       17.99678
H         30.96731       77.51233       18.82782
N         32.62704       75.76593       21.06427
C         32.53438       74.68538       22.04157
C         32.51123       75.23630       23.45912
O         32.81409       76.40662       23.64939
C         33.72713       73.70890       21.87474
C         33.84490       73.15562       20.46650
C         34.30088       73.96676       19.40754
C         33.51175       71.81755       20.19803
C         34.39868       73.45675       18.11029
C         33.60570       71.31041       18.89696
C         34.04634       72.13049       17.84806
O         34.13656       71.65629       16.58887
H         33.42907       76.40018       21.13487
H         31.59582       74.11179       21.88240
H         33.57823       72.87488       22.59468
H         34.69046       74.20010       22.13498
H         34.59026       74.99468       19.57975
H         33.16524       71.16874       20.99201
H         34.74826       74.09488       17.30757
H         33.33317       70.28055       18.70487
H         33.89490       70.74701       16.36194
N         32.15207       74.43920       24.51108
C         32.19321       74.88640       25.90302
C         33.04766       73.89959       26.68257
O         32.64199       72.75144       26.81449
C         30.76597       74.95988       26.53791
C         29.77777       75.76318       25.65810
C         30.85709       75.57867       27.95109
C         28.33492       75.72077       26.17381
H         31.83895       73.47525       24.31667
H         32.64179       75.90394       25.95575
H         30.36524       73.92468       26.61362
H         29.75862       75.32203       24.63883
H         30.10623       76.81725       25.58357
H         29.87977       75.57410       28.47056
H         31.55087       75.00553       28.59372
H         31.21999       76.62785       27.88796
H         28.23350       76.22038       27.15776
H         27.67010       76.25288       25.46194
H         27.98846       74.66821       26.25918
N         34.25060       74.25689       27.21094
C         35.06450       73.31517       27.98017
C         34.42784       73.02114       29.33578
O         33.40548       73.60316       29.65879
C         36.49240       73.86106       28.15970
O         36.47700       75.04658       28.90164
H         34.60653       75.20625       27.02782
H         35.15685       72.37047       27.39963
H         36.93631       74.05743       27.15919
H         37.11601       73.09653       28.67534
H         37.40716       75.19691       29.21293
N         34.99770       72.12787       30.19228
C         34.48721       71.86341       31.53673
C         34.55094       73.11625       32.39426
O         33.55275       73.47447       33.00253
C         35.30384       70.75072       32.20202
H         35.83989       71.62248       29.87852
H         33.43597       71.50041       31.47714
H         35.23210       69.82123       31.59767
H         36.37279       71.03781       32.29236
H         34.90082       70.53701       33.21563
N         35.70292       73.84211       32.46535
C         35.85140       75.06956       33.24517
C         34.81889       76.11062       32.84812
O         34.12243       76.61982       33.71475
C         37.26049       75.64358       33.04538
H         36.51073       73.51253       31.91352
H         35.73444       74.83634       34.32697
H         38.02156       74.90141       33.36828
H         37.44039       75.89084       31.97657
H         37.39114       76.56463       33.65247
N         34.64883       76.44581       31.54021
C         33.66669       77.41767       31.06175
C         32.25965       77.07395       31.52382
O         31.51909       77.98321       31.87283
C         33.69117       77.49899       29.52130
C         35.00030       78.09934       28.98251
C         35.00728       78.12298       27.48113
O         34.16199       78.75164       26.86630
O         35.95893       77.45543       26.80438
H         35.22919       75.95152       30.85016
H         33.91278       78.42793       31.45953
H         32.86113       78.15395       29.18931
H         33.52816       76.48465       29.09628
H         35.87075       77.50869       29.32916
H         35.11873       79.13743       29.36117
N         31.82951       75.78618       31.58457
C         30.50534       75.43256       32.04489
H         29.74213       75.85901       31.36121
H         30.39478       74.32720       32.06307
H         30.34354       75.81898       33.07434
H         32.46887       75.02896       31.32454
Ca        34.68464       78.88857       23.70883
O         36.48961       75.73739       24.46146
H         36.03966       74.95992       24.04658
H         37.45641       75.54541       24.36645
O         38.13395       78.55401       25.18854
H         38.87027       78.90785       24.62951
H         38.58184       77.99100       25.86802

Ca 1.0



