%chk=holoCaM.loop1.water2.frame286.chk
%nprocshared=20
%mem=10GB
%nosave
#b3lyp/svp scf=(tight,noincore,xqc) Test 
#IOP(5/87=12) Density=Current Pop=(MK,readradii) iop(6/33=2) iop(6/42=6)

holoCaM.loop1.water2.frame286 

   0  1 
C         17.07142       55.21764       47.45493
C         17.16626       54.40564       46.19824
O         16.85367       54.91097       45.12909
H         16.37805       54.72554       48.16796
H         18.07751       55.29533       47.92032
H         16.70173       56.24206       47.23722
N         17.62728       53.12724       46.25470
C         17.81673       52.30830       45.06735
C         16.47994       51.97238       44.39302
O         15.58605       51.46556       45.05589
C         18.56434       51.01003       45.41882
C         18.96557       50.36298       44.13384
O         19.85704       50.98651       43.33299
O         18.41359       49.34277       43.77424
H         17.90825       52.74970       47.17380
H         18.47723       52.87955       44.37639
H         17.90306       50.35099       46.02497
H         19.48897       51.21392       46.00154
N         16.30220       52.21006       43.06128
C         15.07446       51.96979       42.30934
C         15.24706       50.96853       41.15628
O         14.28264       50.77356       40.42949
C         14.47339       53.32314       41.83436
C         15.39812       54.37101       41.17814
C         16.14684       53.92961       39.91423
C         16.90559       55.13314       39.31335
N         17.72962       54.74962       38.16912
H         17.08856       52.58974       42.53669
H         14.29486       51.51731       42.96107
H         14.07256       53.83142       42.73952
H         13.60314       53.12568       41.17218
H         16.13570       54.72035       41.93047
H         14.75862       55.24482       40.92383
H         15.43342       53.53590       39.15949
H         16.86130       53.12851       40.18620
H         17.56308       55.59517       40.07799
H         16.16994       55.90325       38.99297
H         18.50411       54.12878       38.48698
H         17.15284       54.26852       37.44242
H         18.16101       55.60769       37.75524
N         16.39065       50.24304       40.96342
C         16.54935       49.23526       39.90202
C         16.74234       47.82920       40.46530
O         16.90993       46.90256       39.68296
C         17.82547       49.53535       39.10430
C         17.87550       50.90210       38.51711
O         18.71964       51.80394       39.04576
O         17.16101       51.20707       37.57604
H         17.17793       50.37892       41.61096
H         15.66776       49.22469       39.22474
H         17.99507       48.79365       38.29294
H         18.66164       49.44003       39.81978
N         16.80148       47.59811       41.80322
C         17.16575       46.32021       42.38291
C         18.58157       45.90407       42.02066
O         18.78099       44.75334       41.65988
H         16.61743       48.36272       42.46361
H         16.43103       45.53346       42.10515
H         17.13806       46.43357       43.48859
N         19.61894       46.78624       42.13076
C         21.02811       46.42804       41.97654
C         21.83782       46.73431       43.24373
O         23.01438       46.40059       43.27176
C         21.64871       47.13353       40.75048
C         21.53058       48.63324       40.77965
O         21.98153       49.33940       41.82969
O         21.04502       49.22215       39.82949
H         19.40089       47.76426       42.34733
H         21.12483       45.33414       41.80388
H         21.16054       46.75573       39.82532
H         22.72563       46.86530       40.69203
N         21.28976       47.35922       44.32690
C         22.00984       47.64313       45.55632
C         23.19608       48.56398       45.36437
O         24.26825       48.22882       45.84232
H         20.30266       47.64120       44.31645
H         22.33279       46.69126       46.03184
H         21.30948       48.14714       46.25871
N         23.04684       49.77727       44.75747
C         24.09543       50.81125       44.68350
C         23.48477       52.18082       44.35926
O         22.32510       52.24960       43.97722
C         25.24742       50.50805       43.67411
C         26.11253       49.27449       43.97328
O         24.76015       50.45542       42.35904
H         22.09154       50.00028       44.44533
H         24.51487       50.91681       45.70883
H         25.95644       51.36188       43.72744
H         24.36487       49.55695       42.22219
H         25.54167       48.33368       43.84032
H         26.95930       49.23486       43.25597
H         26.52862       49.33294       45.00131
N         24.19581       53.33105       44.57357
C         23.59167       54.66141       44.48185
C         24.35991       55.55042       43.50203
O         25.50506       55.89270       43.76114
C         23.53839       55.28630       45.91159
C         22.80339       54.37640       46.94017
C         22.92912       56.69634       45.91864
C         21.31198       54.13252       46.66608
H         25.16604       53.26236       44.91722
H         22.54633       54.58307       44.11758
H         24.58691       55.38436       46.27217
H         22.89205       54.83566       47.94864
H         23.31471       53.39154       46.99156
H         23.50766       57.38294       45.27023
H         21.88221       56.67792       45.56768
H         22.94886       57.11164       46.94811
H         21.14731       53.63839       45.69088
H         20.90135       53.46590       47.45368
H         20.73498       55.07836       46.69152
N         23.76009       55.96838       42.34966
C         24.34998       56.89289       41.37980
C         24.21504       58.33515       41.86625
O         23.69680       58.56204       42.94940
C         23.63165       56.75855       39.99940
C         23.77759       55.35308       39.39348
O         22.28151       57.15355       40.08495
H         22.82689       55.60351       42.14789
H         25.41932       56.63514       41.21506
H         24.11595       57.43094       39.26255
H         21.72481       56.35454       40.26459
H         23.29064       55.32597       38.39516
H         24.85043       55.09730       39.26807
H         23.29852       54.59140       40.04046
N         24.61183       59.37148       41.07142
C         24.32572       60.77556       41.36855
C         22.82030       61.01729       41.39516
O         22.33947       61.65141       42.32152
C         24.98038       61.72372       40.33061
C         26.50827       61.64321       40.36969
O         24.54052       61.43666       39.02632
H         25.08989       59.15099       40.18679
H         24.75430       61.04779       42.35987
H         24.72247       62.77635       40.60400
H         23.79612       62.06124       38.82120
H         26.87937       61.89430       41.38628
H         26.86680       60.62927       40.09729
H         26.93845       62.37108       39.64977
N         22.01561       60.54136       40.39939
C         20.56272       60.73413       40.35921
C         19.82505       60.03619       41.51242
O         18.62804       60.25052       41.64007
C         20.05575       60.30012       38.95809
C         18.55292       60.49682       38.68764
C         18.27011       60.36244       37.17842
C         16.78415       60.49769       36.80737
N         16.00322       59.33124       37.22268
H         22.46492       60.03339       39.62190
H         20.36516       61.82557       40.45009
H         20.31315       59.23494       38.76384
H         20.61886       60.92744       38.23084
H         18.24075       61.51577       39.00441
H         17.98149       59.74348       39.26738
H         18.65548       59.39688       36.78480
H         18.81845       61.18489       36.66730
H         16.71379       60.58262       35.69978
H         16.35884       61.42783       37.24568
H         16.38854       58.46878       36.77203
H         16.00995       59.22252       38.26058
H         15.01459       59.45511       36.90530
N         20.46381       59.22395       42.40776
C         19.80776       58.58149       43.54640
C         20.36921       59.05780       44.88452
O         19.83601       58.65197       45.90875
C         19.98780       57.05768       43.43750
C         19.35413       56.49896       42.16501
C         19.61047       55.02819       42.04809
O         20.74082       54.58369       41.97430
O         18.58245       54.18425       42.00230
H         21.45863       59.02688       42.27866
H         18.72181       58.82115       43.55718
H         19.52473       56.55306       44.31565
H         21.07572       56.83140       43.42966
H         19.76637       56.99974       41.26724
H         18.25886       56.68872       42.19501
N         21.43109       59.90710       44.97329
C         21.95342       60.37429       46.23817
H         22.82435       61.04236       46.06125
H         21.17318       60.94696       46.78176
H         22.28762       59.51597       46.85604
H         21.90312       60.23634       44.12965
Ca        19.50432       51.47177       41.14970
O         21.22635       53.31604       38.62929
H         21.75042       52.67590       38.08540
H         21.04380       54.07125       38.01578
O         23.49713       51.95696       40.23938
H         24.09907       52.22487       39.50051
H         23.25146       51.02237       40.02781

Ca 1.0



