%chk=holoCaM-CaMKII.loop3.water2.frame219.chk
%nprocshared=20
%mem=10GB
%nosave
#b3lyp/svp scf=(tight,noincore,xqc) Test 
#IOP(5/87=12) Density=Current Pop=(MK,readradii) iop(6/33=2) iop(6/42=6)

holoCaM-CaMKII.loop3.water2.frame219 

   0  1 
C         23.57440       71.64799       37.56789
C         23.49770       72.11882       36.14281
O         23.06280       73.23571       35.91229
H         24.22158       72.32984       38.15610
H         22.55538       71.63257       38.00833
H         23.99362       70.62064       37.63590
N         23.92171       71.30690       35.13680
C         23.85246       71.61574       33.71016
C         22.44662       71.30692       33.18296
O         22.26494       70.34419       32.45036
C         24.96245       70.79710       33.00895
C         24.94265       70.89466       31.51599
O         24.75694       69.87947       30.86561
O         25.10944       72.04757       30.85073
H         24.32036       70.39356       35.40675
H         24.09590       72.68336       33.51498
H         24.83551       69.72364       33.27171
H         25.95617       71.12500       33.38210
N         21.39252       72.10068       33.52674
C         20.01365       71.85511       33.10091
C         19.78673       72.11769       31.61116
O         18.66719       71.90667       31.16411
C         19.03826       72.76400       33.88736
C         19.10146       72.55418       35.40974
C         18.14063       73.52022       36.11758
C         18.17658       73.40718       37.65062
N         19.48420       73.76524       38.20726
H         21.57653       72.90770       34.13157
H         19.75254       70.79815       33.33329
H         17.99504       72.55684       33.55831
H         19.27395       73.82625       33.65364
H         20.13012       72.74908       35.76361
H         18.83365       71.50393       35.65897
H         17.10427       73.30610       35.77529
H         18.38930       74.56653       35.83392
H         17.89969       72.37763       37.96694
H         17.41423       74.10842       38.05703
H         20.20652       73.05675       37.94860
H         19.77540       74.71229       37.87147
H         19.41481       73.78609       39.24995
N         20.76672       72.59608       30.78704
C         20.54296       72.91668       29.37774
C         21.28206       71.96861       28.44505
O         21.11590       72.09638       27.23951
C         20.86472       74.40278       29.09271
C         22.28043       74.82223       29.37194
O         22.96666       75.26382       28.46539
O         22.77167       74.80111       30.62617
H         21.71029       72.74166       31.16201
H         19.46930       72.78496       29.12301
H         20.19941       75.04582       29.70571
H         20.63969       74.60872       28.02284
N         22.05979       70.95451       28.91696
C         22.67142       69.95636       28.06212
C         23.66486       70.54803       27.09720
O         23.54369       70.30933       25.90423
H         22.19908       70.83759       29.92839
H         21.88104       69.39674       27.51489
H         23.21432       69.22675       28.70167
N         24.70427       71.29533       27.56118
C         25.80302       71.76454       26.72135
C         27.12942       71.14032       27.14390
O         28.08238       71.25082       26.38411
C         25.89522       73.31105       26.67474
C         26.22189       73.99464       28.01979
N         26.45944       75.41969       27.82556
O         25.12142       73.85447       28.85703
H         24.72442       71.49136       28.56475
H         25.62308       71.42481       25.67781
H         24.93810       73.72423       26.28581
H         26.69284       73.57222       25.94643
H         27.17810       75.56613       27.08256
H         26.85451       75.79484       28.71746
N         27.28116       70.48817       28.33669
C         28.50758       69.84007       28.75743
C         29.22767       70.60524       29.84760
O         30.23477       70.10032       30.31870
H         26.51201       70.45035       29.01371
H         29.22209       69.73649       27.91246
H         28.25400       68.81509       29.10482
N         28.84037       71.86141       30.23050
C         29.64819       72.70214       31.11410
C         28.83369       73.27881       32.26256
O         27.63251       73.09212       32.31675
C         30.21407       73.85070       30.25646
C         31.09370       73.32863       29.14469
C         30.65773       73.37747       27.80904
C         32.35631       72.78562       29.43449
C         31.47099       72.88855       26.78236
C         33.17396       72.31011       28.40421
C         32.73248       72.35926       27.07371
O         33.50974       71.90431       26.07007
H         28.01621       72.29673       29.79257
H         30.48623       72.12196       31.55659
H         30.79642       74.57890       30.86088
H         29.34671       74.39177       29.82024
H         29.68355       73.78135       27.56190
H         32.71195       72.74260       30.45640
H         31.12064       72.92362       25.75835
H         34.14983       71.90488       28.64080
H         34.39332       71.54143       26.22648
N         29.46756       73.97828       33.24900
C         28.79922       74.62548       34.38085
C         29.48816       75.96195       34.64909
O         30.70392       75.98564       34.77361
C         28.84369       73.71017       35.64514
C         27.99823       72.42994       35.39470
C         28.30813       74.46475       36.88487
C         28.03528       71.41103       36.53301
H         30.49719       74.01077       33.21832
H         27.72271       74.80804       34.16017
H         29.90032       73.42610       35.84450
H         28.38262       71.90203       34.50003
H         26.93767       72.71378       35.20666
H         28.91993       75.36428       37.09684
H         27.25298       74.77624       36.73210
H         28.37364       73.84559       37.79990
H         29.08044       71.08624       36.71785
H         27.59755       71.81626       37.46648
H         27.43086       70.52472       36.24490
N         28.75561       77.09790       34.84357
C         29.35260       78.39039       35.18236
C         29.09886       78.73482       36.64357
O         28.45239       77.96974       37.33765
C         28.79235       79.47618       34.24786
O         27.40572       79.60451       34.42991
H         27.73010       77.03077       34.81667
H         30.45529       78.35305       35.05289
H         28.99662       79.20708       33.19005
H         29.30678       80.44243       34.45760
H         27.18465       80.57020       34.36691
N         29.61624       79.87744       37.18237
C         29.41877       80.28382       38.57368
C         27.94943       80.49804       38.87784
O         27.46192       79.96219       39.86314
C         30.19231       81.57580       38.86210
H         30.18482       80.48487       36.57418
H         29.83003       79.50405       39.25398
H         30.06241       81.86810       39.92681
H         31.27613       81.41392       38.67865
H         29.83962       82.40676       38.21528
N         27.17886       81.26019       38.05288
C         25.75048       81.48438       38.25520
C         24.98605       80.17136       38.32072
O         24.24708       79.96980       39.27404
C         25.19369       82.36052       37.12773
H         27.63035       81.68020       37.22475
H         25.59656       82.03900       39.20835
H         25.72534       83.33662       37.11391
H         25.32566       81.86915       36.14016
H         24.11291       82.55714       37.29315
N         25.14976       79.21391       37.36257
C         24.46715       77.91755       37.39674
C         24.73503       77.17275       38.69488
O         23.83791       76.50072       39.18481
C         24.91202       77.00886       36.23266
C         24.53335       77.55246       34.84866
C         24.99384       76.60486       33.77915
O         25.78496       76.97706       32.92963
O         24.53828       75.33817       33.75341
H         25.81686       79.40791       36.60184
H         23.36919       78.07702       37.30814
H         24.41931       76.01703       36.34982
H         26.00929       76.85749       36.29604
H         24.99474       78.54673       34.68002
H         23.43061       77.66370       34.77628
N         25.94661       77.24287       39.30681
C         26.24308       76.54401       40.53581
H         27.27596       76.78799       40.86594
H         25.53449       76.85524       41.33233
H         26.16988       75.44883       40.37183
H         26.68214       77.82519       38.89750
Ca        25.60845       74.21906       31.04449
O         28.10808       76.47621       31.11243
H         28.80721       76.58930       30.42164
H         27.73348       77.38485       31.22494
O         24.72516       77.41258       30.01933
H         24.96936       78.15128       30.63114
H         23.73820       77.45953       29.96108

Ca 1.0



