%chk=holoCaM.loop1.water2.frame126.chk
%nprocshared=20
%mem=10GB
%nosave
#b3lyp/svp scf=(tight,noincore,xqc) Test 
#IOP(5/87=12) Density=Current Pop=(MK,readradii) iop(6/33=2) iop(6/42=6)

holoCaM.loop1.water2.frame126 

   0  1 
C         97.89039       80.42307      -16.59038
C         98.85787       79.58851      -17.36276
O         99.24976       79.97885      -18.45392
H         96.96496       79.83813      -16.41508
H         98.34474       80.70092      -15.61569
H         97.64070       81.35011      -17.14827
N         99.31941       78.42513      -16.83017
C        100.31149       77.61446      -17.50713
C         99.72900       76.96533      -18.76728
O         98.89693       76.07521      -18.66962
C        100.89864       76.57696      -16.53261
C        101.97803       75.83143      -17.22008
O        101.90509       74.62704      -17.34598
O        102.96055       76.51590      -17.81554
H         99.00543       78.15550      -15.88498
H        101.14877       78.29865      -17.78436
H        100.11129       75.87472      -16.18027
H        101.33347       77.09833      -15.65245
N        100.11190       77.41904      -19.99101
C         99.60605       76.93163      -21.27178
C        100.14254       75.55096      -21.65923
O         99.33957       74.75499      -22.12666
C         99.89603       77.96931      -22.38615
C         99.08036       79.26235      -22.15152
C         99.34176       80.32643      -23.22416
C         98.38947       81.52243      -23.05290
N         98.67105       82.56538      -24.03900
H        100.72975       78.23754      -20.00337
H         98.49472       76.86419      -21.23116
H         99.57290       77.55345      -23.36679
H        100.98463       78.18518      -22.44208
H         99.31493       79.70351      -21.15981
H         97.99991       78.99527      -22.16664
H         99.17862       79.89061      -24.23324
H        100.39571       80.66873      -23.14687
H         98.48830       81.95197      -22.03101
H         97.34036       81.17131      -23.18225
H         98.61717       82.17492      -25.00775
H         97.96262       83.32889      -23.94345
H         99.62290       82.96487      -23.87069
N        101.46371       75.19685      -21.53932
C        101.99573       73.91544      -22.03325
C        102.35547       72.88502      -20.96089
O        102.98117       71.88559      -21.28723
C        103.08665       74.11592      -23.10802
C        104.43838       74.70631      -22.77227
O        105.24573       74.78672      -23.68339
O        104.84375       75.12705      -21.55873
H        102.11009       75.86566      -21.10745
H        101.19509       73.38639      -22.59652
H        102.64518       74.73508      -23.91806
H        103.30130       73.11424      -23.54289
N        101.80880       72.95320      -19.72015
C        101.84354       71.86317      -18.74938
C        103.20978       71.46199      -18.22647
O        103.42369       70.27515      -18.02482
H        101.22742       73.76980      -19.48705
H        101.33827       70.96806      -19.17386
H        101.23718       72.16902      -17.86983
N        104.13012       72.39262      -17.86206
C        105.36357       72.08301      -17.13665
C        105.32255       72.67903      -15.72750
O        106.30501       72.55929      -15.00887
C        106.60356       72.56321      -17.92522
C        106.49490       73.98395      -18.39064
O        106.65169       74.25212      -19.57032
O        106.17933       74.96008      -17.52591
H        103.92032       73.38188      -18.05105
H        105.48865       70.98919      -16.98542
H        106.75030       71.91679      -18.81767
H        107.50765       72.45135      -17.28680
N        104.20650       73.29969      -15.24819
C        104.10363       73.88877      -13.92745
C        105.06951       75.02978      -13.75984
O        105.73943       75.09038      -12.74201
H        103.36338       73.36298      -15.82857
H        104.24414       73.11959      -13.13746
H        103.07762       74.30536      -13.81841
N        105.13613       76.00164      -14.70872
C        105.95397       77.21395      -14.62481
C        105.52226       78.22583      -15.68427
O        104.86798       77.88237      -16.65749
C        107.50076       76.98395      -14.73505
C        108.21833       76.50132      -13.46871
O        107.82129       76.15364      -15.81771
H        104.49630       75.88943      -15.50995
H        105.71406       77.70947      -13.65859
H        107.96985       77.97455      -14.92229
H        107.62871       75.21859      -15.53987
H        109.31405       76.50350      -13.65465
H        108.00592       77.19343      -12.62714
H        107.95881       75.46575      -13.19421
N        105.82222       79.53615      -15.50126
C        105.38300       80.61671      -16.37241
C        106.61431       81.27601      -16.97187
O        107.51927       81.66645      -16.24666
C        104.45645       81.57720      -15.55979
C        103.07856       80.87951      -15.34069
C        104.25960       82.92948      -16.27362
C        102.13358       81.61482      -14.38746
H        106.36737       79.79836      -14.66392
H        104.76941       80.23907      -17.21926
H        104.94147       81.78733      -14.58091
H        103.22817       79.86336      -14.91815
H        102.56830       80.76207      -16.32474
H        103.64459       83.61956      -15.66310
H        105.23474       83.43863      -16.41626
H        103.77516       82.79281      -17.26104
H        102.58393       81.66840      -13.37455
H        101.89153       82.63626      -14.74068
H        101.17562       81.05473      -14.31826
N        106.67365       81.45826      -18.32030
C        107.76673       82.08816      -19.04484
C        107.38152       83.51139      -19.38799
O        106.31007       83.95091      -19.00710
C        108.05695       81.29561      -20.35686
C        108.52835       79.86641      -20.08240
O        106.93711       81.31843      -21.21688
H        105.84785       81.21160      -18.87213
H        108.68477       82.12946      -18.41893
H        108.88960       81.77276      -20.91041
H        106.40565       80.48953      -21.09797
H        108.72849       79.34706      -21.04420
H        109.46055       79.87641      -19.48138
H        107.74011       79.31897      -19.53688
N        108.21515       84.28989      -20.12571
C        107.86637       85.62484      -20.60532
C        106.63878       85.57565      -21.50068
O        105.72888       86.36657      -21.29748
C        109.04522       86.25034      -21.38609
C        110.22850       86.54958      -20.46131
O        109.45351       85.39147      -22.42283
H        109.12874       83.89540      -20.39161
H        107.64418       86.29526      -19.74390
H        108.69326       87.22393      -21.80411
H        109.76691       85.95940      -23.17305
H        111.04588       87.02463      -21.04199
H        109.91183       87.25384      -19.66186
H        110.62009       85.62597      -19.98731
N        106.54551       84.66084      -22.50649
C        105.40054       84.56817      -23.40942
C        104.10942       84.37419      -22.61521
O        103.17939       85.14955      -22.78719
C        105.59095       83.40209      -24.42024
C        106.83996       83.50177      -25.33379
C        106.81536       84.70986      -26.28761
C        107.99043       84.72107      -27.28824
N        109.29196       84.88226      -26.63576
H        107.31628       83.98609      -22.61078
H        105.31057       85.51150      -23.98928
H        104.69210       83.33607      -25.07239
H        105.66559       82.44690      -23.85542
H        106.87065       82.57895      -25.95406
H        107.76201       83.51851      -24.72087
H        106.82280       85.65998      -25.71417
H        105.87638       84.66405      -26.88096
H        107.83890       85.57373      -27.98721
H        107.98722       83.78648      -27.89256
H        110.03127       84.96181      -27.37171
H        109.30122       85.75387      -26.05804
H        109.51636       84.05405      -26.04077
N        104.00097       83.36245      -21.71049
C        102.79818       83.08595      -20.91692
C        102.44734       84.22960      -19.96725
O        101.28012       84.36995      -19.63040
C        102.99197       81.77805      -20.10618
C        103.19049       80.56564      -21.04386
C        103.59862       79.30296      -20.33542
O        102.96793       78.27810      -20.50204
O        104.72386       79.25438      -19.60556
H        104.82519       82.75892      -21.58895
H        101.93830       82.93457      -21.60713
H        102.11836       81.58644      -19.44376
H        103.87907       81.91715      -19.46107
H        103.99282       80.76762      -21.77595
H        102.24973       80.39866      -21.61041
N        103.40727       85.05494      -19.46455
C        103.15721       86.12650      -18.52031
H        102.08380       86.22205      -18.25725
H        103.73110       85.93522      -17.58757
H        103.50482       87.08786      -18.95404
H        104.37577       84.91680      -19.75392
Ca       104.01321       75.60515      -19.54173
O        107.47006       77.08386      -18.62714
H        108.23964       76.65372      -19.07680
H        107.87335       77.61054      -17.89248
O        106.60745       77.63192      -21.64501
H        105.67508       77.49609      -21.94603
H        107.10245       77.85213      -22.47329

Ca 1.0



