%chk=holoCaM.loop1.water2.frame279.chk
%nprocshared=20
%mem=10GB
%nosave
#b3lyp/svp scf=(tight,noincore,xqc) Test 
#IOP(5/87=12) Density=Current Pop=(MK,readradii) iop(6/33=2) iop(6/42=6)

holoCaM.loop1.water2.frame279 

   0  1 
C         37.11528       95.76165       17.09123
C         37.95824       95.62006       15.86153
O         38.33002       96.61885       15.26177
H         36.14614       95.24335       16.93357
H         37.63871       95.29641       17.95364
H         36.92318       96.83047       17.31963
N         38.31367       94.37962       15.43755
C         39.14920       94.14892       14.26927
C         38.41934       94.58199       13.00065
O         37.41028       93.98024       12.65791
C         39.48429       92.65262       14.20169
C         40.40476       92.26651       13.09944
O         40.96892       93.09022       12.39771
O         40.58148       90.96202       12.87580
H         37.99914       93.57099       15.99825
H         40.09644       94.71800       14.40315
H         38.53592       92.08746       14.06875
H         39.95244       92.31852       15.15338
N         38.85553       95.65109       12.27833
C         38.14644       96.15252       11.10022
C         38.34234       95.28698        9.85711
O         37.55925       95.42683        8.92838
C         38.55177       97.62025       10.80756
C         40.01235       97.78218       10.33878
C         40.43700       99.25869       10.32053
C         41.92930       99.44734        9.99210
N         42.25486       99.06005        8.61909
H         39.64980       96.18320       12.65548
H         37.06370       96.18032       11.35878
H         38.39802       98.19318       11.74914
H         37.88277       98.05698       10.03386
H         40.12628       97.32515        9.33477
H         40.68677       97.25539       11.03159
H         40.27690       99.67527       11.33847
H         39.81060       99.83849        9.60942
H         42.55054       98.86348       10.70806
H         42.18238      100.52225       10.12730
H         43.26876       99.24934        8.44678
H         42.08217       98.04207        8.46574
H         41.68845       99.62539        7.94588
N         39.44467       94.49176        9.71218
C         39.79943       93.81311        8.46165
C         40.13001       92.32128        8.62578
O         40.54171       91.71074        7.64871
C         40.92268       94.60448        7.74859
C         42.21071       94.77345        8.50526
O         42.37296       94.26917        9.74076
O         43.12410       95.39802        7.99030
H         40.12382       94.47198       10.48112
H         38.94866       93.85196        7.74608
H         40.53336       95.62286        7.52596
H         41.14576       94.11716        6.77464
N         39.87900       91.64186        9.78231
C         39.98976       90.18845        9.90755
C         41.39158       89.60357       10.06518
O         41.47217       88.39320       10.22208
H         39.43373       92.14543       10.56003
H         39.47504       89.70797        9.04654
H         39.42925       89.88446       10.81712
N         42.53136       90.35386       10.05049
C         43.87712       89.77039       10.21236
C         44.19302       89.23560       11.62372
O         45.27682       88.70094       11.81494
C         44.96076       90.79079        9.80167
C         44.85270       92.09868       10.53256
O         44.83229       92.13735       11.87441
O         44.76976       93.13835        9.90184
H         42.44054       91.36292        9.86928
H         43.97648       88.91361        9.50937
H         44.87512       90.98809        8.71092
H         45.96668       90.35286        9.97998
N         43.31755       89.34742       12.65404
C         43.56203       88.89255       14.01325
C         44.66958       89.65879       14.70001
O         45.54670       89.03158       15.26837
H         42.41311       89.76707       12.47125
H         43.76287       87.79898       14.02851
H         42.63905       89.07178       14.60818
N         44.62965       91.02009       14.75489
C         45.55133       91.87009       15.51450
C         44.98406       93.31711       15.50449
O         45.26418       93.87859       14.25262
C         47.04178       91.89820       14.99834
C         47.92916       90.69205       15.31123
O         47.11697       92.19284       13.62753
H         43.82827       91.47693       14.29012
H         45.53166       91.52783       16.57229
H         47.54308       92.72672       15.54630
H         46.81231       91.38495       13.13855
H         47.65197       89.80009       14.72422
H         48.97345       90.93813       15.01865
H         47.91342       90.47579       16.39939
N         45.60016       94.14349       16.55221
C         44.87093       95.39726       16.83169
C         45.87699       96.52842       16.73053
O         46.89954       96.48999       17.40227
C         44.13003       95.36047       18.21408
C         43.02559       94.26272       18.28397
C         43.53473       96.73376       18.59237
C         41.83200       94.45689       17.33716
H         45.77759       93.60842       17.43419
H         44.10612       95.57983       16.05937
H         44.87954       95.11843       19.00020
H         42.62291       94.23532       19.32035
H         43.47202       93.26745       18.07928
H         43.02301       96.67213       19.57769
H         44.33499       97.49624       18.68787
H         42.80978       97.09079       17.83302
H         41.30682       95.41536       17.53339
H         42.15154       94.41015       16.27971
H         41.09526       93.64139       17.49444
N         45.62897       97.58352       15.90246
C         46.54899       98.69541       15.67983
C         46.08564       99.91646       16.44894
O         45.09000       99.82941       17.14773
C         46.64042       99.00765       14.15826
C         47.17650       97.82166       13.34504
O         45.39773       99.44820       13.65669
H         44.71246       97.62194       15.43261
H         47.56451       98.44447       16.06031
H         47.36382       99.83382       13.99840
H         44.84238       98.65768       13.42866
H         46.50569       96.94279       13.44343
H         47.23643       98.10330       12.27147
H         48.19223       97.54362       13.69568
N         46.77220      101.08917       16.39671
C         46.33975      102.30397       17.08742
C         44.99435      102.79236       16.55870
O         44.10116      103.02669       17.35750
C         47.39841      103.42904       16.97551
C         48.68599      103.06772       17.72350
O         47.70804      103.70435       15.63191
H         47.64044      101.11816       15.83930
H         46.22735      102.09211       18.17629
H         47.00182      104.34237       17.48239
H         47.18712      104.50594       15.36563
H         48.46431      102.88137       18.79688
H         49.16417      102.16238       17.29613
H         49.40592      103.91082       17.66070
N         44.78174      102.95129       15.21865
C         43.52771      103.44168       14.63700
C         42.33633      102.64490       15.13641
O         41.40976      103.24574       15.66502
C         43.62788      103.39690       13.09248
C         42.35065      103.80013       12.33025
C         41.88048      105.23632       12.60211
C         40.64529      105.56131       11.74676
N         40.17379      106.92403       11.98897
H         45.54806      102.69265       14.57968
H         43.38452      104.50073       14.94412
H         43.87843      102.35932       12.77974
H         44.46347      104.05797       12.77241
H         41.53196      103.08996       12.57722
H         42.56925      103.69969       11.24420
H         42.69732      105.94843       12.35404
H         41.61511      105.35134       13.67440
H         39.82783      104.84484       11.98651
H         40.90113      105.45093       10.66908
H         39.90051      107.03760       12.99201
H         40.92155      107.61289       11.74412
H         39.33704      107.10641       11.38847
N         42.30922      101.28931       15.04487
C         41.21502      100.47753       15.57653
C         41.00251      100.77225       17.05428
O         39.89467      101.11514       17.43970
C         41.53099       98.98567       15.41525
C         41.56429       98.51221       13.95023
C         42.00402       97.08136       13.88835
O         42.22624       96.46552       14.91419
O         42.23937       96.46880       12.72074
H         43.12811      100.82239       14.62464
H         40.27151      100.69840       15.02976
H         40.76338       98.38147       15.94869
H         42.52029       98.78831       15.88929
H         42.29298       99.11290       13.36875
H         40.56067       98.61460       13.48766
N         42.03852      100.67379       17.92900
C         41.94731      100.94381       19.34704
H         40.91644      101.20328       19.66138
H         42.27952      100.04634       19.91048
H         42.62205      101.78925       19.60030
H         42.95387      100.41227       17.56597
Ca        43.45063       94.64860       13.15764
O         44.83477       96.77136       10.65889
H         45.65547       96.80358       10.10568
H         44.09518       96.87793       10.01048
O         46.65129       94.74449       11.83795
H         46.91623       93.86696       11.46731
H         47.47764       95.28623       11.79397

Ca 1.0



