%chk=holoCaM-CaMKII.loop1.water2.frame407.chk
%nprocshared=20
%mem=10GB
%nosave
#b3lyp/svp scf=(tight,noincore,xqc) Test 
#IOP(5/87=12) Density=Current Pop=(MK,readradii) iop(6/33=2) iop(6/42=6)

holoCaM-CaMKII.loop1.water2.frame407 

   0  1 
C         48.18238       41.42754       43.61647
C         49.49677       40.73318       43.43817
O         49.56237       39.79387       42.65957
H         47.42881       40.69224       43.97101
H         48.25537       42.24452       44.36441
H         47.85267       41.85378       42.64703
N         50.59302       41.12882       44.14448
C         51.87765       40.44720       44.05047
C         51.67993       38.99957       44.46290
O         51.20889       38.75004       45.56412
C         52.91625       41.18131       44.91722
C         54.27820       40.56683       44.84448
O         54.85223       40.44138       43.77514
O         54.88917       40.19048       45.97820
H         50.50046       41.93038       44.78780
H         52.23065       40.49922       42.99520
H         52.58091       41.20426       45.97706
H         52.99977       42.22873       44.55591
N         51.95292       38.00035       43.57812
C         51.56083       36.61025       43.77102
C         52.75797       35.69763       43.98632
O         52.56352       34.53290       44.30364
C         50.74232       36.19253       42.51955
C         49.75665       35.02551       42.70414
C         48.68675       35.28096       43.79037
C         47.94304       36.62347       43.62006
N         46.95233       36.81932       44.67440
H         52.39022       38.25321       42.68939
H         50.93947       36.55915       44.68484
H         51.43639       35.98656       41.67358
H         50.13800       37.05628       42.17478
H         50.29933       34.08484       42.93494
H         49.23647       34.88161       41.73044
H         49.16410       35.26109       44.79050
H         47.95410       34.44567       43.75828
H         47.44559       36.65947       42.62537
H         48.66120       37.46681       43.68703
H         47.42213       36.80480       45.60918
H         46.50045       37.75385       44.54375
H         46.22214       36.07372       44.62752
N         54.02844       36.16125       43.81468
C         55.23733       35.37435       44.01649
C         56.20636       36.07786       44.98067
O         57.29332       35.56151       45.19743
C         55.82282       35.02332       42.62959
C         56.04980       36.19501       41.71881
O         56.30817       37.40483       42.23121
O         56.15370       36.01700       40.51687
H         54.16645       37.12246       43.47791
H         54.99856       34.39254       44.48263
H         55.05030       34.39543       42.13251
H         56.74163       34.40268       42.70592
N         55.83736       37.19989       45.67528
C         56.61685       37.78954       46.75685
C         57.80396       38.65181       46.36043
O         58.39990       39.21110       47.27022
H         54.88838       37.57915       45.55428
H         56.93532       36.99313       47.46280
H         55.94194       38.45441       47.33663
N         58.22804       38.82522       45.07389
C         59.40184       39.65771       44.76327
C         59.20893       41.14399       45.03620
O         60.21817       41.83665       45.08659
C         59.94889       39.42409       43.33963
C         58.88975       39.38603       42.28581
O         58.06085       40.41267       42.01837
O         58.74485       38.34697       41.66077
H         57.74671       38.31313       44.32339
H         60.22083       39.33627       45.44544
H         60.43297       38.42157       43.33747
H         60.73437       40.16662       43.08427
N         57.98774       41.71960       45.22290
C         57.82740       43.11573       45.60593
C         57.22410       43.98917       44.52860
O         57.00449       45.15497       44.81095
H         57.13696       41.15247       45.10814
H         58.80172       43.58144       45.87185
H         57.19096       43.15346       46.51583
N         56.97537       43.52559       43.26682
C         56.44519       44.38062       42.20264
C         55.13388       43.82014       41.68007
O         54.82377       42.67257       41.94839
C         57.48619       44.52268       41.06359
C         58.76886       45.22909       41.53815
O         57.78839       43.27113       40.49594
H         57.18831       42.54871       43.03868
H         56.22488       45.39411       42.59843
H         57.05617       45.15832       40.25960
H         58.45071       42.81222       41.07637
H         58.52987       46.24514       41.91549
H         59.26586       44.65468       42.34963
H         59.48203       45.32402       40.69144
N         54.28936       44.61584       40.94913
C         53.01471       44.13250       40.42313
C         53.00969       44.34640       38.91716
O         52.99132       45.48518       38.47549
C         51.80375       44.86694       41.08251
C         51.89065       44.83921       42.63116
C         50.48158       44.23044       40.59798
C         50.80048       45.67362       43.31407
H         54.54942       45.59728       40.78065
H         52.90534       43.04999       40.64626
H         51.83186       45.93459       40.77017
H         52.86006       45.28064       42.94662
H         51.84592       43.79359       43.00339
H         49.59789       44.77651       40.98137
H         50.40795       44.25837       39.49381
H         50.41765       43.17042       40.92887
H         50.84000       46.72507       42.95537
H         49.78854       45.26192       43.12868
H         50.96363       45.67240       44.41209
N         53.04756       43.28282       38.06790
C         53.00214       43.42578       36.61469
C         51.56837       43.65632       36.16035
O         50.66717       43.63619       36.97969
C         53.59100       42.16613       35.91532
C         55.07265       41.95052       36.26055
O         52.83408       41.01821       36.20189
H         53.12930       42.34719       38.47190
H         53.63369       44.28905       36.30969
H         53.55742       42.30923       34.81537
H         53.18516       40.60875       37.03281
H         55.19878       41.79063       37.35023
H         55.45335       41.05298       35.72764
H         55.67254       42.83143       35.95245
N         51.28330       43.85748       34.84595
C         49.91916       43.92335       34.31610
C         49.21335       42.58611       34.52120
O         48.09823       42.56019       35.02140
C         49.93621       44.28767       32.80894
C         50.45058       45.71931       32.59900
O         50.73265       43.37781       32.09230
H         52.07450       43.92350       34.18936
H         49.33871       44.72072       34.83382
H         48.88740       44.24141       32.43351
H         50.58546       43.55769       31.12752
H         49.80178       46.43928       33.14236
H         51.49309       45.83262       32.96179
H         50.42371       45.97674       31.51951
N         49.84782       41.43142       34.17878
C         49.30777       40.07723       34.32010
C         48.79713       39.82835       35.73428
O         47.64778       39.43899       35.88737
C         50.42682       39.09807       33.88647
C         50.11478       37.59641       33.93829
C         51.29472       36.83333       33.29508
C         51.24510       35.30707       33.45454
N         50.06874       34.70542       32.82956
H         50.80889       41.52670       33.81516
H         48.45123       39.94668       33.62170
H         51.33086       39.27875       34.51051
H         50.67771       39.35767       32.83306
H         49.18096       37.37665       33.37832
H         49.98796       37.29147       34.99940
H         52.24315       37.16699       33.77080
H         51.34856       37.09095       32.21293
H         51.27321       35.04578       34.53456
H         52.15966       34.88620       32.97733
H         50.13349       33.66630       32.93110
H         49.19727       35.02888       33.30562
H         50.03656       34.94315       31.81182
N         49.58071       40.08520       36.81450
C         49.13905       39.93220       38.20190
C         47.92415       40.81016       38.47325
O         46.90919       40.28777       38.91266
C         50.31037       40.23552       39.17174
C         51.42215       39.17616       38.98940
C         52.63212       39.37653       39.85379
O         53.13958       38.33263       40.52918
O         53.23432       40.43476       39.85743
H         50.52530       40.44164       36.63154
H         48.83872       38.87600       38.38564
H         49.94846       40.19679       40.21825
H         50.70521       41.25915       38.98024
H         51.77077       39.17739       37.94399
H         51.00883       38.16446       39.19247
N         47.93858       42.13889       38.17972
C         46.79660       43.01844       38.34005
H         45.91870       42.50145       38.78047
H         47.07288       43.87091       38.99440
H         46.49978       43.41719       37.34567
H         48.78820       42.54482       37.78166
Ca        56.19896       39.43689       41.25383
O         55.45957       38.14406       38.30016
H         56.19046       38.06484       38.96182
H         55.92781       38.20229       37.43047
O         57.30609       40.69257       38.82162
H         57.14982       41.65052       38.63238
H         57.53618       40.30186       37.94224

Ca 1.0



