%chk=holoCaM.loop1.water2.frame13.chk
%nprocshared=20
%mem=10GB
%nosave
#b3lyp/svp scf=(tight,noincore,xqc) Test 
#IOP(5/87=12) Density=Current Pop=(MK,readradii) iop(6/33=2) iop(6/42=6)

holoCaM.loop1.water2.frame13 

   0  1 
C         88.67629       13.93327       15.95195
C         90.08457       13.55918       15.58990
O         90.99940       14.32433       15.85737
H         87.95692       13.14197       15.64641
H         88.59559       14.06761       17.04985
H         88.39524       14.87398       15.43655
N         90.32751       12.37132       14.98028
C         91.65136       11.90872       14.59625
C         92.29613       12.83773       13.55714
O         91.70888       13.11721       12.52221
C         91.53185       10.47301       14.07609
C         92.81570       10.01749       13.49754
O         93.91129        9.89015       14.26919
O         92.86320        9.77141       12.30582
H         89.52201       11.75240       14.79509
H         92.30106       11.86275       15.50088
H         90.75508       10.43215       13.28425
H         91.23195        9.78460       14.89935
N         93.55907       13.29259       13.78892
C         94.32010       14.24230       12.98473
C         95.36728       13.56605       12.09680
O         95.72463       14.16375       11.09091
C         94.99948       15.22450       13.98025
C         95.87111       16.31979       13.35068
C         96.29881       17.39500       14.37382
C         97.06704       16.90631       15.61994
N         98.32224       16.23261       15.28942
H         94.00411       12.96232       14.64118
H         93.62776       14.80885       12.32227
H         95.64835       14.64295       14.67330
H         94.19538       15.70367       14.57805
H         95.28421       16.83668       12.56219
H         96.76856       15.86657       12.87622
H         95.38260       17.91005       14.73657
H         96.91975       18.14938       13.84448
H         96.43187       16.23309       16.23244
H         97.29216       17.79941       16.24563
H         98.85241       16.05722       16.17468
H         98.12996       15.31314       14.83179
H         98.90462       16.83378       14.66324
N         95.96117       12.38028       12.42958
C         97.06392       11.78451       11.65726
C         96.75946       10.37052       11.13573
O         97.67593        9.66689       10.73576
C         98.40343       11.93139       12.42831
C         98.45508       11.34585       13.80058
O         99.54970       11.51532       14.56533
O         97.51340       10.73064       14.24118
H         95.65646       11.91060       13.29196
H         97.24986       12.36932       10.73130
H         98.59914       13.01843       12.54710
H         99.23281       11.49137       11.83688
N         95.47234        9.99225       10.90895
C         95.05068        8.81886       10.14603
C         95.29454        7.46203       10.77654
O         95.75636        6.56103       10.09107
H         94.73102       10.64831       11.18238
H         95.47551        8.85774        9.12036
H         93.94628        8.88552       10.03436
N         94.89947        7.22579       12.05275
C         94.82892        5.91062       12.69118
C         93.39307        5.64064       13.23644
O         93.17832        4.57486       13.79615
C         95.89867        5.81980       13.82414
C         95.80178        7.00165       14.73914
O         96.80855        7.81466       15.07464
O         94.71195        7.34136       15.11548
H         94.60399        8.03790       12.60422
H         95.05538        5.09922       11.96363
H         96.92609        5.78024       13.40639
H         95.72557        4.88281       14.39885
N         92.37021        6.55284       13.11705
C         91.00158        6.39417       13.62947
C         90.83531        6.43075       15.15583
O         89.70798        6.37745       15.62304
H         92.53537        7.41342       12.59050
H         90.55603        5.46757       13.21463
H         90.40420        7.25476       13.25002
N         91.90487        6.54520       15.98017
C         91.91575        6.61633       17.44030
C         92.49491        7.95121       17.92002
O         93.00135        8.72939       17.12429
C         92.77937        5.43115       17.98322
C         92.03639        4.10272       17.84656
O         93.98548        5.31027       17.27086
H         92.79398        6.56337       15.53047
H         90.87986        6.56753       17.84000
H         93.02860        5.55024       19.06227
H         94.38550        6.20656       17.20503
H         91.42757        4.06827       16.91988
H         92.76349        3.26200       17.81373
H         91.37691        3.95150       18.72605
N         92.39546        8.27518       19.24311
C         92.79401        9.54025       19.86520
C         93.86932        9.27427       20.92417
O         93.72251        8.38053       21.74581
C         91.51250       10.24865       20.44949
C         90.83328       11.21565       19.43367
C         91.78162       11.08450       21.71850
C         90.52624       10.64988       18.05551
H         91.95483        7.58147       19.86663
H         93.23625       10.24383       19.13322
H         90.78979        9.46117       20.75948
H         91.48168       12.10826       19.27601
H         89.87597       11.56771       19.87680
H         92.16584       10.44749       22.54186
H         92.50578       11.89821       21.50967
H         90.83696       11.54104       22.08751
H         91.46511       10.47836       17.50436
H         89.92697        9.72057       18.12045
H         89.96228       11.40726       17.47574
N         94.92930       10.13018       21.00939
C         95.96663       10.12315       22.03579
C         95.70015       11.25376       23.00857
O         94.72986       11.97597       22.84974
C         97.37044       10.36463       21.39126
C         97.86168        9.18303       20.56055
O         97.38669       11.56534       20.65034
H         94.93567       10.93172       20.37545
H         95.96056        9.17433       22.61464
H         98.14198       10.47491       22.17912
H         97.13875       11.36653       19.71145
H         98.85918        9.42357       20.13322
H         97.96383        8.28376       21.20126
H         97.15287        8.97941       19.74374
N         96.55716       11.48034       24.03847
C         96.49449       12.66578       24.88584
C         96.75931       13.90678       24.04798
O         96.08135       14.90839       24.22626
C         97.53816       12.58663       26.02461
C         97.24158       11.41308       26.96632
O         98.83329       12.46026       25.49405
H         97.32787       10.81266       24.18357
H         95.49266       12.74663       25.36616
H         97.46280       13.53300       26.61074
H         99.46757       12.67006       26.22774
H         97.97252       11.40919       27.80093
H         96.22054       11.51297       27.39178
H         97.31422       10.44093       26.43623
N         97.75328       13.90212       23.11250
C         98.10033       15.06045       22.29259
C         96.97569       15.46028       21.32021
O         97.07710       16.51488       20.71007
C         99.41979       14.74863       21.55356
C        100.19369       15.98487       21.06986
C        101.57580       15.60008       20.50853
C        101.48988       14.78640       19.20721
N        102.82324       14.42567       18.72882
H         98.31139       13.04090       23.00956
H         98.29106       15.89569       23.00284
H         99.20602       14.03016       20.73480
H        100.10036       14.25054       22.28009
H        100.37180       16.63724       21.95435
H         99.62074       16.56497       20.31851
H        102.13551       15.02076       21.27741
H        102.14694       16.53178       20.30588
H        100.96797       15.39257       18.43408
H        100.91570       13.85057       19.36604
H        103.39218       15.28516       18.55390
H        103.30294       13.82100       19.43537
H        102.73057       13.88941       17.83602
N         95.86448       14.67691       21.15265
C         94.69706       15.03017       20.34222
C         93.46472       15.23794       21.21978
O         92.48763       15.78458       20.72701
C         94.38958       13.89032       19.34316
C         95.53794       13.67397       18.35270
C         95.36250       12.44170       17.51538
O         95.24819       11.22873       18.07654
O         95.41278       12.52304       16.30750
H         95.82804       13.77479       21.63348
H         94.88042       15.98455       19.80055
H         93.45014       14.09036       18.78090
H         94.22653       12.96927       19.93881
H         96.49144       13.55478       18.89960
H         95.61128       14.56641       17.69618
N         93.41177       14.79723       22.50905
C         92.25274       14.95290       23.35415
H         91.36954       14.47677       22.88012
H         92.43833       14.45220       24.33067
H         92.06196       16.02955       23.53759
H         94.19968       14.29896       22.91988
Ca        95.70068        9.69778       15.64042
O         96.07786        7.71941       17.99183
H         96.99106        7.35419       17.88153
H         95.68595        7.18294       18.72620
O         98.18552        9.84042       17.44241
H         99.03432       10.12636       17.86018
H         98.17430       10.31795       16.58010

Ca 1.0



