%chk=holoCaM.loop4.water3.frame122.chk
%nprocshared=20
%mem=10GB
%nosave
#b3lyp/svp scf=(tight,noincore,xqc) Test 
#IOP(5/87=12) Density=Current Pop=(MK,readradii) iop(6/33=2) iop(6/42=6)

holoCaM.loop4.water3.frame122 

   -3  1 
C         77.15606       97.11994       16.88433
C         77.51815       95.83420       17.56486
O         78.69908       95.58521       17.76182
H         76.53335       97.72915       17.57576
H         78.06898       97.70714       16.64192
H         76.58817       96.92089       15.95498
N         76.53669       95.00186       18.02218
C         76.81407       93.87255       18.89843
C         76.07375       92.59130       18.50533
O         74.86710       92.61146       18.31173
C         76.42181       94.29150       20.32088
C         76.83894       93.26020       21.31694
O         78.01686       92.96051       21.41118
O         75.92540       92.66371       22.10515
H         75.55294       95.27574       17.87637
H         77.90899       93.67130       18.92537
H         75.32819       94.47383       20.38266
H         76.95238       95.23443       20.57970
N         76.75853       91.41327       18.50033
C         76.20068       90.07803       18.27421
C         76.31262       89.23117       19.55185
O         75.34039       88.58824       19.92177
C         76.98104       89.39569       17.10127
C         76.80545       90.14542       15.75288
C         76.63197       87.90069       16.93479
C         75.37793       90.14379       15.19139
H         77.76051       91.46702       18.70886
H         75.12326       90.12025       18.00862
H         78.06603       89.42806       17.34984
H         77.46739       89.67017       14.99520
H         77.13703       91.19880       15.86735
H         76.89909       87.32834       17.84792
H         75.55150       87.75004       16.73839
H         77.21974       87.46144       16.09967
H         75.36517       90.68346       14.22160
H         75.02040       89.11080       15.00182
H         74.67351       90.65719       15.87525
N         77.48808       89.15449       20.23735
C         77.77951       88.20945       21.32774
C         77.99173       88.83380       22.71902
O         78.19409       88.07697       23.65988
C         79.06071       87.41328       20.97367
C         80.28884       88.29566       20.92020
O         80.16015       89.63667       20.92177
O         81.40053       87.79798       20.85694
H         78.22671       89.77010       19.90333
H         76.93242       87.49647       21.43069
H         78.94914       86.87413       20.00927
H         79.22327       86.65476       21.76999
N         77.95964       90.17462       22.94056
C         78.09890       90.77206       24.26722
C         79.48310       90.69675       24.91824
O         79.55700       91.05832       26.08455
H         77.73975       90.78214       22.15097
H         77.36168       90.27790       24.93973
H         77.82009       91.84588       24.21922
N         80.61250       90.25420       24.27889
C         81.89205       90.05645       24.98113
C         82.47929       91.31162       25.64146
O         83.35578       91.16203       26.48087
C         82.96440       89.32808       24.10449
C         83.98673       90.22828       23.41770
O         83.63660       91.18846       22.54675
O         85.16413       90.12715       23.72181
H         80.52881       89.95274       23.30654
H         81.62661       89.34764       25.79800
H         82.47135       88.63041       23.39348
H         83.55977       88.69259       24.79639
N         82.07870       92.56906       25.29124
C         82.56604       93.79326       25.92272
C         83.30246       94.71823       24.96666
O         83.57126       95.84865       25.34879
H         81.38396       92.67532       24.54295
H         83.23942       93.58473       26.78202
H         81.67855       94.33199       26.31696
N         83.71258       94.29792       23.73828
C         84.44194       95.11825       22.77429
C         83.75686       95.06299       21.41438
O         82.77131       94.35313       21.26042
C         85.88880       94.57763       22.65360
C         86.69570       94.82574       23.93885
C         88.09325       94.27085       23.83622
N         88.30145       92.93677       23.74193
O         89.04920       95.03200       23.85906
H         83.54374       93.32245       23.47983
H         84.48290       96.18302       23.09483
H         86.43031       95.09327       21.83185
H         85.85364       93.49260       22.40955
H         86.20065       94.36486       24.81865
H         86.74904       95.92550       24.10260
H         87.50919       92.27816       23.74447
H         89.25916       92.55923       23.68547
N         84.26803       95.76531       20.36227
C         83.77386       95.65905       18.99311
C         84.86550       94.99179       18.17267
O         86.01773       95.39671       18.25647
C         83.36148       97.03849       18.41551
C         82.80613       96.87528       16.98591
C         82.28500       97.70650       19.28692
H         85.09419       96.36311       20.52162
H         82.86696       95.01837       18.95451
H         84.24789       97.70899       18.38363
H         82.50253       97.85883       16.56944
H         83.57081       96.44328       16.30750
H         81.91787       96.20430       16.98490
H         82.00351       98.69315       18.86038
H         81.37055       97.08119       19.33572
H         82.65858       97.87418       20.31814
N         84.56075       93.93960       17.36655
C         85.54812       93.10554       16.68777
C         85.59650       93.40561       15.19682
O         84.71507       94.07381       14.67550
C         85.17706       91.64080       17.01635
C         85.90464       90.54597       16.28933
N         87.23277       90.36245       16.43427
O         85.26477       89.77991       15.58478
H         83.56701       93.69824       17.24918
H         86.56546       93.33688       17.07366
H         84.10043       91.51019       16.78482
H         85.30815       91.48919       18.10759
H         87.78866       90.98262       17.03831
H         87.69954       89.58599       15.94273
N         86.70342       93.04329       14.47978
C         86.92207       93.42394       13.08559
C         85.95898       92.75868       12.11574
O         85.81061       93.26621       11.01269
C         88.37312       93.16379       12.60218
C         88.71120       91.69309       12.41952
C         88.77627       91.15469       11.12106
C         88.96473       90.84574       13.51310
C         89.06181       89.80072       10.92505
C         89.25105       89.49301       13.31507
C         89.29598       88.96401       12.02392
O         89.56991       87.65549       11.85212
H         87.45800       92.58276       14.99410
H         86.76100       94.52522       13.04149
H         89.11977       93.65702       13.26084
H         88.45452       93.66687       11.61268
H         88.59145       91.77981       10.25642
H         88.96305       91.21489       14.52295
H         89.09816       89.40379        9.91880
H         89.44132       88.85543       14.16936
H         89.61108       87.24974       10.97468
N         85.30626       91.60606       12.43785
C         84.33869       90.95844       11.55420
C         82.92998       91.07397       12.11567
O         81.98536       90.76799       11.40085
C         84.72516       89.48648       11.27313
C         84.79449       88.61602       12.54244
C         85.05766       87.17588       12.21359
O         84.16946       86.23045       12.57709
O         86.08237       86.85110       11.63526
H         85.48419       91.18901       13.36014
H         84.31212       91.48983       10.57813
H         85.71332       89.45880       10.76304
H         83.96947       89.05415       10.58042
H         83.83267       88.68176       13.09536
H         85.61391       88.96724       13.20046
N         82.70930       91.51611       13.38494
C         81.38992       91.74105       13.94651
C         80.76879       92.94775       13.27284
O         79.69189       92.83208       12.70552
C         81.54511       91.95199       15.46169
C         80.23238       92.08348       16.22681
C         80.54109       92.16712       17.69246
O         81.19459       93.09772       18.13076
O         80.14919       91.18589       18.52205
H         83.51041       91.70458       13.99951
H         80.76476       90.83069       13.80328
H         82.18061       92.84164       15.65200
H         82.06482       91.05165       15.85935
H         79.61373       91.18228       16.03409
H         79.66912       92.98610       15.90623
N         81.42257       94.14386       13.27920
C         80.89831       95.32587       12.63394
H         79.93002       95.61206       13.09424
H         81.61389       96.16812       12.75570
H         80.75984       95.13632       11.54847
H         82.33705       94.21941       13.74621
Ca        81.72771       91.06697       21.48524
O         79.98772       94.78415       20.45933
H         79.66405       95.67195       20.75235
H         80.48751       94.96590       19.62768
O         79.76953       93.97972       23.20004
H         80.41338       94.72775       23.26901
H         79.27995       93.98365       24.06000
O         83.26122       90.56105       19.23163
H         82.67190       89.76974       19.30153
H         83.94283       90.42925       19.93816

Ca 1.0



