%chk=holoCaM-CaMKII.loop1.water2.frame417.chk
%nprocshared=20
%mem=10GB
%nosave
#b3lyp/svp scf=(tight,noincore,xqc) Test 
#IOP(5/87=12) Density=Current Pop=(MK,readradii) iop(6/33=2) iop(6/42=6)

holoCaM-CaMKII.loop1.water2.frame417 

   0  1 
C         63.99784       55.92677       27.96611
C         65.10878       55.31108       27.16948
O         64.87958       54.32073       26.49940
H         63.05583       55.35092       27.84604
H         64.27731       55.93914       29.04062
H         63.82800       56.96892       27.62162
N         66.33999       55.88796       27.18084
C         67.51368       55.41474       26.44416
C         68.14257       54.19033       27.13518
O         69.21594       54.31575       27.70900
C         68.51660       56.59608       26.39338
C         69.73754       56.37019       25.55548
O         69.87649       55.36378       24.87790
O         70.69073       57.31796       25.55309
H         66.42580       56.76652       27.71728
H         67.23691       55.19040       25.38945
H         68.84077       56.83543       27.42966
H         68.00931       57.49379       25.97657
N         67.51899       52.97852       27.15883
C         68.02264       51.83854       27.92388
C         69.26483       51.17613       27.31984
O         69.80091       50.28631       27.96538
C         66.88492       50.81571       28.16595
C         65.73997       51.47222       28.96851
C         64.64295       50.47795       29.36216
C         63.48957       51.14791       30.13776
N         63.93447       51.77652       31.38529
H         66.61922       52.87524       26.68563
H         68.31671       52.20885       28.93135
H         67.28538       49.96924       28.76539
H         66.50342       50.41427       27.20052
H         65.27600       52.29298       28.38289
H         66.17977       51.90030       29.89266
H         65.08391       49.67036       29.98564
H         64.21889       50.01933       28.44233
H         62.73753       50.36448       30.37836
H         62.99352       51.91118       29.49751
H         64.46022       51.09015       31.97341
H         64.53087       52.61142       31.18737
H         63.09760       52.10701       31.91765
N         69.79682       51.55675       26.12039
C         71.03536       51.00004       25.55881
C         72.13080       52.06593       25.40798
O         73.22110       51.72215       24.97235
C         70.73931       50.25332       24.24136
C         69.89474       51.06232       23.30653
O         68.79055       50.65250       22.98783
O         70.29514       52.27255       22.88623
H         69.31871       52.28822       25.57528
H         71.47571       50.24094       26.24273
H         70.17488       49.32648       24.49082
H         71.68633       49.93944       23.75056
N         71.95321       53.34547       25.84816
C         73.02196       54.32624       25.96996
C         73.55146       54.95244       24.69590
O         74.43645       55.78692       24.83031
H         71.05637       53.60909       26.26504
H         73.86362       53.86707       26.53299
H         72.63941       55.17089       26.58369
N         73.09905       54.65098       23.44350
C         73.66933       55.30359       22.25832
C         73.42248       56.81665       22.21198
O         74.10253       57.48655       21.44751
C         73.21822       54.62396       20.94830
C         71.73610       54.62812       20.70944
O         70.88778       55.17079       21.59834
O         71.29368       54.10704       19.69998
H         72.37735       53.92588       23.33062
H         74.77184       55.15971       22.31408
H         73.55158       53.56471       20.96797
H         73.71443       55.12651       20.08938
N         72.47202       57.41984       22.98323
C         72.26414       58.86358       23.04579
C         70.93209       59.31309       22.47380
O         70.65146       60.50144       22.54782
H         71.86338       56.82937       23.55859
H         73.05639       59.41157       22.49235
H         72.33023       59.17386       24.11098
N         70.09237       58.44954       21.83470
C         68.85544       58.84925       21.16689
C         67.67288       58.03235       21.67151
O         67.86758       57.11610       22.46069
C         69.02215       58.65979       19.63583
C         70.10229       59.57868       19.04582
O         69.29633       57.31736       19.32051
H         70.36485       57.46639       21.75953
H         68.63233       59.92066       21.36644
H         68.07287       58.93378       19.12903
H         70.25194       57.13047       19.51609
H         70.17355       59.41026       17.94995
H         69.84034       60.64178       19.22630
H         71.09596       59.36980       19.49668
N         66.40211       58.32793       21.25768
C         65.22458       57.56376       21.66428
C         64.48590       57.08719       20.41669
O         63.92948       57.91478       19.70663
C         64.29799       58.43013       22.57672
C         65.07790       58.91639       23.82889
C         63.03843       57.63937       22.98739
C         64.26853       59.83040       24.75347
H         66.25894       59.14099       20.63837
H         65.53583       56.67770       22.25633
H         63.97131       59.32477       21.99978
H         65.96250       59.50162       23.49860
H         65.43868       58.04290       24.41530
H         62.47205       57.30603       22.09663
H         63.31483       56.75296       23.59480
H         62.33681       58.27068       23.56758
H         63.41125       59.29453       25.20835
H         64.91633       60.17833       25.58547
H         63.89924       60.71723       24.19605
N         64.44635       55.76368       20.08159
C         63.69047       55.26018       18.93171
C         62.19275       55.30066       19.20153
O         61.77183       55.58975       20.31196
C         64.08397       53.79496       18.56305
C         65.51111       53.67926       18.03098
O         63.87182       52.91451       19.63675
H         64.99321       55.10630       20.64938
H         63.91595       55.89734       18.04782
H         63.45064       53.43974       17.72457
H         64.66926       52.93635       20.22513
H         66.21827       53.98391       18.81596
H         65.72224       52.62518       17.74919
H         65.64303       54.32014       17.13399
N         61.32846       54.96103       18.20505
C         59.88853       54.80037       18.38943
C         59.61572       53.70601       19.41182
O         58.80386       53.90723       20.30286
C         59.18847       54.46241       17.04512
C         59.27968       55.63051       16.04376
O         59.67499       53.25990       16.49116
H         61.72813       54.76405       17.27683
H         59.44252       55.75320       18.75425
H         58.10427       54.31844       17.24503
H         60.43186       53.46360       15.88176
H         60.33311       55.86426       15.78253
H         58.73706       55.37026       15.11085
H         58.81555       56.54133       16.47828
N         60.30747       52.53344       19.35645
C         60.16139       51.43344       20.30720
C         60.38741       51.89222       21.74002
O         59.51652       51.66822       22.56960
C         61.14212       50.30618       19.90768
C         61.11767       49.08432       20.83691
C         61.96848       47.95475       20.23811
C         62.02854       46.73412       21.16340
N         62.74732       45.63278       20.52146
H         61.00231       52.42871       18.60060
H         59.12930       51.02271       20.23280
H         62.18318       50.69777       19.87356
H         60.86156       49.98125       18.88094
H         60.07425       48.71991       20.95452
H         61.51400       49.37360       21.83529
H         63.00467       48.31391       20.05072
H         61.51638       47.65356       19.26722
H         60.99812       46.39645       21.41102
H         62.54467       47.01590       22.10843
H         63.71567       45.93022       20.26122
H         62.80502       44.82630       21.18413
H         62.23257       45.32558       19.66371
N         61.52881       52.53899       22.10429
C         61.80613       52.95359       23.47898
C         60.75624       53.91046       24.02184
O         60.57645       53.94687       25.23184
C         63.20329       53.59473       23.59625
C         64.32338       52.58031       23.30872
C         65.68232       53.20883       23.39898
O         66.60378       52.70576       24.23783
O         65.97393       54.15426       22.68822
H         62.22297       52.73162       21.37415
H         61.78475       52.04545       24.12289
H         63.33895       53.97973       24.62591
H         63.26804       54.45403       22.89175
H         64.20883       52.15483       22.29547
H         64.26010       51.74406       24.03782
N         60.01693       54.70581       23.20247
C         58.96901       55.56553       23.70759
H         58.18781       54.95017       24.20445
H         59.38521       56.29402       24.43467
H         58.49755       56.12104       22.86936
H         60.19468       54.70218       22.19109
Ca        68.70698       53.53276       21.90984
O         67.11979       51.69606       20.16519
H         67.61271       51.08711       20.76787
H         67.71517       51.79816       19.38125
O         68.60094       54.53160       19.26201
H         67.99083       55.27787       19.04202
H         68.69914       54.02723       18.41649

Ca 1.0



