%chk=holoCaM.loop3.water3.frame492.chk
%nprocshared=20
%mem=10GB
%nosave
#b3lyp/svp scf=(tight,noincore,xqc) Test 
#IOP(5/87=12) Density=Current Pop=(MK,readradii) iop(6/33=2) iop(6/42=6)

holoCaM.loop3.water3.frame492 

   0  1 
C          6.44419       48.92436       19.09573
C          7.55457       47.93991       18.88804
O          7.92189       47.68047       17.75046
H          5.60603       48.43792       19.63514
H          6.81999       49.77961       19.69783
H          6.07539       49.31306       18.12268
N          8.16940       47.37605       19.96335
C          9.31831       46.49243       19.82775
C          8.90710       45.16726       19.17007
O          8.08408       44.46138       19.73629
C          9.96263       46.26747       21.21344
C         11.33026       45.66981       21.11280
O         11.90833       45.51002       19.91112
O         11.93678       45.37581       22.12457
H          7.85079       47.65137       20.90628
H         10.05627       47.03880       19.20637
H          9.29900       45.62327       21.83094
H         10.08798       47.24043       21.73744
N          9.38922       44.80334       17.94268
C          8.87355       43.65364       17.18776
C          9.26011       42.27134       17.71853
O          8.55008       41.33106       17.38863
C          9.24748       43.75920       15.69408
C          8.51580       44.93022       15.01790
C          8.81514       44.98446       13.51600
C          7.89366       45.99218       12.81496
N          8.14382       46.01794       11.37473
H         10.04290       45.44492       17.47324
H          7.76216       43.69784       17.24284
H          8.92076       42.83103       15.17532
H         10.34857       43.85204       15.57704
H          8.78399       45.90233       15.48627
H          7.42453       44.76263       15.15349
H          8.62873       43.98332       13.06984
H          9.88255       45.25385       13.35622
H          8.04372       47.00979       13.23859
H          6.83502       45.69254       12.98889
H          7.46099       46.66706       10.92114
H          9.11496       46.35584       11.18596
H          8.01617       45.06183       10.96916
N         10.35222       42.04800       18.50156
C         10.66819       40.72871       19.08943
C         10.66029       40.78169       20.61045
O         10.84052       39.73920       21.22553
C         12.01328       40.10497       18.58592
C         13.24087       40.93827       18.82846
O         14.35588       40.51495       18.57172
O         13.05658       42.20889       19.18051
H         10.94207       42.86307       18.70755
H          9.88160       39.99392       18.81286
H         11.95042       39.90276       17.49606
H         12.15178       39.12683       19.09749
N         10.44665       41.94003       21.29626
C         10.43918       42.00039       22.74116
C         11.78760       41.65366       23.32194
O         11.86215       40.76536       24.15883
H         10.26650       42.82254       20.80056
H          9.64561       41.33285       23.14344
H         10.19681       43.04022       23.05368
N         12.88871       42.37418       22.96559
C         14.17943       42.26018       23.63439
C         14.45436       43.53114       24.44991
O         15.55623       43.67295       24.96013
C         15.32159       41.92989       22.62912
C         15.71676       43.03318       21.67937
N         16.75721       42.87316       20.83032
O         15.12416       44.09167       21.69082
H         12.78213       43.10361       22.24810
H         14.16856       41.41208       24.35327
H         15.04956       41.02423       22.04352
H         16.23071       41.69099       23.22152
H         17.29569       41.99608       20.81184
H         17.03742       43.64181       20.20172
N         13.47708       44.47309       24.66105
C         13.66947       45.68017       25.45399
C         14.29673       46.83508       24.68435
O         14.55297       47.86092       25.29731
H         12.51852       44.29682       24.33285
H         14.26557       45.43060       26.35853
H         12.67799       46.03672       25.80707
N         14.57595       46.74633       23.35370
C         15.26829       47.76692       22.57011
C         14.50587       48.09152       21.29629
O         14.15854       47.16892       20.57251
C         16.64823       47.20959       22.17245
C         17.50277       46.94301       23.38545
C         17.88085       45.63272       23.72024
C         17.93051       48.00933       24.19369
C         18.66966       45.39352       24.84901
C         18.72467       47.76918       25.31692
C         19.09660       46.45882       25.64911
O         19.86344       46.21309       26.73009
H         14.34062       45.87890       22.87045
H         15.42803       48.69821       23.15500
H         17.18420       47.92952       21.51615
H         16.50278       46.27415       21.59035
H         17.56053       44.79514       23.11485
H         17.65488       49.02783       23.95015
H         18.95026       44.37862       25.10058
H         19.05021       48.60254       25.92645
H         20.18516       46.92345       27.30343
N         14.30392       49.38581       20.90450
C         13.69216       49.74121       19.62465
C         14.76633       50.33297       18.71838
O         15.26157       51.41853       18.98752
C         12.48457       50.70655       19.83371
C         11.39123       50.00367       20.68055
C         11.90958       51.18581       18.48464
C         10.18854       50.89085       21.01174
H         14.66163       50.14887       21.49937
H         13.30368       48.82957       19.12251
H         12.84781       51.60425       20.38233
H         11.83270       49.67817       21.64647
H         11.02794       49.10087       20.14459
H         12.68507       51.69434       17.87881
H         11.50043       50.33199       17.91112
H         11.10902       51.93762       18.63135
H          9.48135       50.32509       21.65405
H         10.51843       51.80021       21.55690
H          9.63425       51.18642       20.09804
N         15.18736       49.63236       17.62436
C         16.18530       50.11140       16.66704
C         15.63053       51.24411       15.81195
O         14.48592       51.62063       15.99355
C         16.62610       48.94111       15.75977
O         15.53794       48.45216       15.02551
H         14.79663       48.69092       17.48459
H         17.08727       50.45552       17.21895
H         17.03736       48.13327       16.40717
H         17.42386       49.26789       15.05917
H         15.83958       47.60536       14.60530
N         16.38438       51.82346       14.83574
C         15.86411       52.82776       13.90849
C         14.78595       52.23615       13.01102
O         13.70952       52.80684       12.91791
C         16.99187       53.37730       13.02935
H         17.36692       51.52509       14.73497
H         15.45538       53.69215       14.47983
H         16.59164       54.15680       12.34475
H         17.77132       53.84458       13.66768
H         17.45828       52.57249       12.42282
N         15.01940       51.07657       12.32719
C         14.05715       50.43848       11.42609
C         12.72113       50.22371       12.10541
O         11.70277       50.64114       11.57106
C         14.61128       49.09015       10.94380
H         15.92803       50.61104       12.47589
H         13.90247       51.08315       10.53283
H         13.89512       48.60449       10.24691
H         15.57232       49.24251       10.40841
H         14.79087       48.40649       11.80233
N         12.66843       49.62582       13.32310
C         11.44448       49.45041       14.09894
C         10.74487       50.78816       14.28120
O          9.58670       50.90913       13.90728
C         11.79712       48.83032       15.46514
C         12.28415       47.37843       15.32261
C         12.80408       46.87390       16.63053
O         13.93646       46.42696       16.71690
O         12.03165       46.93644       17.72259
H         13.56478       49.33704       13.73920
H         10.74646       48.76468       13.56742
H         10.90096       48.82573       16.12481
H         12.58535       49.45244       15.94595
H         13.09337       47.28815       14.56900
H         11.43198       46.74661       14.99238
N         11.40642       51.85136       14.80646
C         10.81095       53.16140       14.93851
H          9.93599       53.11706       15.61877
H         11.55721       53.87147       15.35666
H         10.49600       53.53446       13.94038
H         12.38022       51.73570       15.09151
Ca        13.72167       44.28829       19.47443
O         15.96555       43.20378       17.33019
H         16.89952       42.88225       17.26725
H         15.41736       42.38882       17.21962
O         12.84407       43.54958       16.49892
H         12.96049       42.58123       16.33049
H         12.90434       43.96555       15.60281
O         16.27388       45.98650       18.61024
H         17.06818       45.47998       18.30667
H         16.64737       46.78242       19.06424

Ca 1.0



