%chk=holoCaM.loop4.water3.frame446.chk
%nprocshared=20
%mem=10GB
%nosave
#b3lyp/svp scf=(tight,noincore,xqc) Test 
#IOP(5/87=12) Density=Current Pop=(MK,readradii) iop(6/33=2) iop(6/42=6)

holoCaM.loop4.water3.frame446 

   -3  1 
C         38.55975       71.75532       39.56503
C         38.83333       70.65021       40.54270
O         37.88290       70.07137       41.04904
H         37.94940       72.54402       40.05043
H         39.50138       72.20853       39.19076
H         37.99990       71.34711       38.69583
N         40.11437       70.26721       40.81613
C         40.44620       69.13398       41.67039
C         41.56626       69.51540       42.64366
O         42.59094       69.99756       42.18034
C         40.85303       67.96225       40.75862
C         40.90226       66.63437       41.46296
O         41.21546       65.63717       40.83439
O         40.53207       66.51203       42.75217
H         40.88489       70.73719       40.31657
H         39.54455       68.79833       42.20587
H         41.82552       68.18492       40.27108
H         40.08274       67.84908       39.96291
N         41.46235       69.30533       43.99280
C         42.49503       69.67775       44.96400
C         43.19351       68.45773       45.57117
O         44.15793       68.63556       46.30049
C         41.88465       70.55420       46.11280
C         40.98898       69.72640       47.08985
C         41.10466       71.74597       45.52767
C         40.57241       70.49685       48.34588
H         40.62891       68.84393       44.35573
H         43.28076       70.26766       44.44447
H         42.74056       70.94725       46.70526
H         41.55881       68.85231       47.46745
H         40.08291       69.34360       46.57439
H         40.20959       71.39089       44.97073
H         40.76067       72.43383       46.32561
H         41.74810       72.32744       44.83659
H         41.47309       70.85369       48.89101
H         39.91978       71.35828       48.10509
H         40.00597       69.82067       49.02208
N         42.69370       67.20345       45.38909
C         43.17880       66.00681       46.06860
C         43.33440       64.80692       45.11692
O         43.74028       63.75299       45.58892
C         42.27011       65.68471       47.29240
C         40.78994       65.56615       47.03443
O         40.25845       65.92770       45.85713
O         40.05425       65.16962       47.92382
H         41.85491       67.10636       44.82000
H         44.18608       66.19240       46.50134
H         42.39115       66.47822       48.06147
H         42.62808       64.73422       47.74461
N         43.08419       64.88715       43.77305
C         43.31751       63.79901       42.82370
C         42.42525       62.56311       42.95457
O         42.63903       61.63196       42.19195
H         42.80462       65.78653       43.36643
H         44.37968       63.48363       42.91603
H         43.18245       64.19296       41.79428
N         41.44931       62.45010       43.89880
C         40.72946       61.19556       44.18089
C         39.56873       60.84640       43.23725
O         38.95255       59.81351       43.46744
C         40.22666       61.21761       45.64540
C         39.25939       62.33208       45.92014
O         38.86996       63.13203       44.91618
O         38.88289       62.55355       47.05857
H         41.33126       63.23794       44.54784
H         41.46291       60.35956       44.13770
H         41.11348       61.36811       46.29937
H         39.76148       60.24627       45.91644
N         39.20230       61.60905       42.16758
C         38.10547       61.22597       41.27904
C         36.69489       61.44348       41.83479
O         35.75803       61.11783       41.12392
H         39.76002       62.43986       41.92534
H         38.23775       60.16502       40.97044
H         38.16503       61.83889       40.35350
N         36.45886       62.04322       43.04167
C         35.12408       62.39967       43.53736
C         34.98915       63.91609       43.63106
O         35.95997       64.61926       43.40729
C         34.86017       61.79834       44.93393
C         34.91950       60.26880       44.96668
C         34.41254       59.74687       46.29164
N         35.01482       60.07875       47.45837
O         33.42986       59.02042       46.30915
H         37.25241       62.32203       43.60714
H         34.34472       62.04030       42.83264
H         33.83973       62.10396       45.25214
H         35.58776       62.21188       45.66695
H         35.96054       59.92192       44.79031
H         34.27059       59.86690       44.15839
H         35.84241       60.69119       47.47582
H         34.64425       59.72475       48.35358
N         33.77841       64.48648       43.93360
C         33.57841       65.93160       44.01711
C         32.97709       66.30755       45.37562
O         31.82847       65.99566       45.64795
C         32.70240       66.40391       42.82189
C         32.35449       67.89704       42.90180
C         33.43213       66.14136       41.49048
H         32.95844       63.87861       44.06432
H         34.55153       66.45584       43.91932
H         31.74810       65.83270       42.82512
H         31.76850       68.11627       43.81684
H         33.27354       68.51711       42.89586
H         31.72624       68.18637       42.03252
H         34.38471       66.71392       41.45068
H         33.66441       65.06401       41.36352
H         32.80125       66.45513       40.63220
N         33.73979       66.99637       46.27345
C         33.30222       67.51897       47.56621
C         32.39278       68.72606       47.35868
O         32.21883       69.15299       46.23184
C         34.58317       67.93098       48.35632
C         34.38423       68.42621       49.76502
N         33.80332       67.64488       50.70256
O         34.78530       69.53810       50.07280
H         34.71190       67.15056       46.02548
H         32.77672       66.71226       48.12082
H         35.12709       68.70978       47.77418
H         35.24617       67.04527       48.42911
H         33.47348       66.69789       50.46989
H         33.68784       67.99033       51.66678
N         31.78188       69.33804       48.40723
C         30.99887       70.56980       48.28429
C         31.85659       71.74909       47.83095
O         31.43675       72.45766       46.92656
C         30.18886       70.84633       49.57657
C         30.95448       70.75666       50.88017
C         30.71351       69.66465       51.73585
C         31.89062       71.72715       51.26660
C         31.40869       69.53328       52.93718
C         32.58695       71.59460       52.47462
C         32.35045       70.49322       53.31055
O         33.01748       70.34718       54.47269
H         31.87893       68.90326       49.33298
H         30.21367       70.43029       47.50552
H         29.41056       70.05149       49.59329
H         29.64163       71.81134       49.50625
H         29.99366       68.90110       51.46726
H         32.07893       72.58728       50.64112
H         31.21558       68.68007       53.57520
H         33.31014       72.34671       52.76158
H         33.68171       70.98480       54.76928
N         33.09149       71.98267       48.36069
C         33.97274       73.06701       47.92021
C         34.21208       72.98177       46.42684
O         34.03095       73.97044       45.72964
C         35.34970       72.99996       48.63594
C         35.29142       73.23719       50.15372
C         34.78027       74.60961       50.49198
O         35.37503       75.60119       50.09983
O         33.66983       74.75326       51.23913
H         33.43380       71.33070       49.07559
H         33.50780       74.05230       48.14452
H         36.02623       73.77047       48.20127
H         35.81657       72.00712       48.45057
H         36.31678       73.13692       50.57145
H         34.66035       72.46568       50.63489
N         34.62364       71.81136       45.87575
C         34.94080       71.64701       44.46264
C         33.73845       71.96462       43.58607
O         33.83965       72.84925       42.74771
C         35.46793       70.21908       44.20550
C         36.77222       69.96827       44.98598
C         37.32500       68.61043       44.70643
O         38.41992       68.49367       44.21210
O         36.64129       67.50460       45.00275
H         34.71846       71.00284       46.50763
H         35.75916       72.35235       44.19220
H         35.67690       70.10305       43.11917
H         34.70375       69.46844       44.50358
H         36.61727       70.04326       46.08073
H         37.52156       70.73593       44.69141
N         32.56372       71.29718       43.74068
C         31.36936       71.55846       42.96319
H         30.55223       71.87797       43.64440
H         31.52283       72.34971       42.20081
H         31.05484       70.62787       42.44703
H         32.50218       70.57314       44.45757
Ca        38.26607       65.22427       45.22340
O         36.28387       64.95991       47.36519
H         37.11736       65.43026       47.62178
H         36.58818       64.10733       46.96615
O         37.89476       64.41625       41.25914
H         38.86459       64.55539       41.39017
H         37.73631       64.64642       40.31004
O         37.19551       67.12366       41.87463
H         36.60365       67.88536       42.09372
H         37.25316       67.13366       40.88696

Ca 1.0



