%chk=holoCaM-CaMKII.loop3.water3.frame231.chk
%nprocshared=20
%mem=10GB
%nosave
#b3lyp/svp scf=(tight,noincore,xqc) Test 
#IOP(5/87=12) Density=Current Pop=(MK,readradii) iop(6/33=2) iop(6/42=6)

holoCaM-CaMKII.loop3.water3.frame231 

   0  1 
C         81.77234       34.97004       42.44350
C         82.86032       35.67366       41.69761
O         83.96576       35.15893       41.62660
H         80.92968       34.76383       41.75012
H         82.14007       34.00753       42.85790
H         81.41800       35.61390       43.27444
N         82.60602       36.86981       41.10141
C         83.59443       37.58515       40.30669
C         84.79996       37.93692       41.17080
O         84.68546       38.75290       42.07495
C         82.93455       38.83780       39.70689
C         83.78689       39.60608       38.75614
O         83.34716       40.64439       38.30148
O         85.00631       39.17388       38.38470
H         81.65553       37.26206       41.19339
H         83.89987       36.91288       39.47178
H         82.63105       39.51301       40.53622
H         82.02049       38.53754       39.14828
N         85.96968       37.26601       40.99222
C         87.12858       37.40809       41.86523
C         87.85936       38.71953       41.62349
O         88.24985       39.35843       42.59024
C         88.05464       36.18285       41.68072
C         89.12137       36.04521       42.78477
C         89.86761       34.70575       42.63613
C         90.88964       34.42137       43.75240
N         90.25873       34.27118       45.06698
H         85.99217       36.52992       40.27167
H         86.78142       37.34989       42.92251
H         88.51842       36.18329       40.67035
H         87.40752       35.27983       41.76436
H         88.60175       36.06180       43.76571
H         89.83977       36.89224       42.74551
H         90.40298       34.70840       41.66210
H         89.13462       33.86876       42.62358
H         91.65876       35.22310       43.78925
H         91.40289       33.46603       43.50059
H         89.50424       33.54730       45.02840
H         90.98043       33.96051       45.75717
H         89.86526       35.18030       45.39699
N         88.07782       39.17938       40.35425
C         88.85302       40.38388       40.04747
C         88.00521       41.52406       39.47237
O         88.57944       42.52699       39.07021
C         90.05437       40.00791       39.14775
C         89.70629       39.54476       37.76154
O         90.59486       39.18821       37.00525
O         88.43671       39.54464       37.32951
H         87.68510       38.64208       39.56735
H         89.30490       40.79503       40.97635
H         90.62372       39.19955       39.65669
H         90.72657       40.88670       39.04525
N         86.63950       41.49773       39.50757
C         85.81419       42.64885       39.15830
C         85.68584       42.96785       37.67825
O         85.07867       43.98897       37.38540
H         86.16685       40.69517       39.94240
H         86.21553       43.53930       39.69088
H         84.78419       42.48698       39.54061
N         86.19344       42.17827       36.68545
C         86.10274       42.56130       35.27103
C         84.66298       42.65053       34.74153
O         84.46890       43.20911       33.67138
C         86.92448       41.60045       34.37620
C         86.19275       40.27333       34.10852
N         86.91112       39.37224       33.22153
O         85.71653       39.64919       35.27233
H         86.69971       41.32213       36.94395
H         86.57313       43.56808       35.20209
H         87.92981       41.43095       34.81872
H         87.06815       42.08881       33.38730
H         87.18285       39.90800       32.36395
H         86.23344       38.64974       32.89472
N         83.62732       42.05288       35.40152
C         82.24101       42.05127       34.95227
C         81.71710       40.65837       34.62389
O         80.55892       40.56718       34.23971
H         83.83164       41.54621       36.26188
H         82.11981       42.67326       34.03929
H         81.61168       42.49601       35.75181
N         82.51028       39.54470       34.67410
C         82.10067       38.22807       34.19766
C         82.31366       37.13679       35.24067
O         82.98927       37.35323       36.23906
C         82.92555       37.85356       32.93614
C         82.67679       38.77485       31.75925
C         82.04377       38.27371       30.60881
C         83.06830       40.12742       31.78207
C         81.77767       39.11091       29.52234
C         82.79527       40.96462       30.69746
C         82.14151       40.45974       29.56570
O         81.85865       41.25824       28.51706
H         83.47667       39.64087       34.97914
H         81.02130       38.23479       33.93154
H         82.65198       36.81783       32.63994
H         84.01104       37.84390       33.17287
H         81.74381       37.23475       30.55435
H         83.58400       40.54591       32.63309
H         81.27979       38.71037       28.64872
H         83.09056       42.00577       30.74003
H         82.07565       42.20140       28.51553
N         81.76020       35.90701       35.02673
C         81.98290       34.72059       35.84790
C         82.49508       33.61063       34.94244
O         81.85339       33.30387       33.94517
C         80.67491       34.26279       36.56570
C         80.21761       35.34798       37.57524
C         80.89958       32.91020       37.28870
C         78.91325       35.00787       38.30350
H         81.14405       35.79511       34.20539
H         82.73171       34.92205       36.64737
H         79.87846       34.11289       35.80298
H         80.05451       36.30171       37.03055
H         81.01216       35.51443       38.33698
H         81.69130       33.00090       38.06342
H         79.96964       32.53592       37.75822
H         81.19470       32.11735       36.57165
H         78.09544       34.83673       37.57246
H         79.02483       34.11284       38.94890
H         78.63072       35.85063       38.96805
N         83.60355       32.90614       35.29094
C         84.10935       31.75309       34.56496
C         83.92585       30.50067       35.40903
O         83.45023       30.59281       36.53323
C         85.58739       31.98359       34.20259
O         86.36822       32.10991       35.36411
H         84.07530       33.14852       36.16429
H         83.53786       31.60502       33.62316
H         85.66310       32.89613       33.56401
H         85.98524       31.13841       33.60417
H         86.80345       33.00137       35.33895
N         84.25827       29.27937       34.91159
C         84.09353       28.03549       35.65951
C         84.93946       28.03346       36.91785
O         84.43369       27.66920       37.96894
C         84.45972       26.83691       34.78491
H         84.63168       29.23244       33.95049
H         83.02186       27.90824       35.93650
H         84.28726       25.89407       35.34758
H         83.80877       26.82478       33.88406
H         85.52154       26.88497       34.46591
N         86.23509       28.45492       36.88384
C         87.08030       28.54855       38.07054
C         86.47256       29.48505       39.10517
O         86.31103       29.07398       40.24619
C         88.47985       29.04238       37.68456
H         86.62544       28.75082       35.97563
H         87.20301       27.53511       38.51549
H         88.43497       30.05360       37.22705
H         89.13268       29.08210       38.58308
H         88.93856       28.34138       36.95441
N         86.09242       30.75486       38.76915
C         85.51162       31.70233       39.72883
C         84.20761       31.18056       40.33645
O         83.78535       31.71685       41.35120
C         85.23729       33.07775       39.06124
C         86.51170       33.76833       38.52287
C         86.22851       34.99488       37.68164
O         85.51177       34.91302       36.70152
O         86.86285       36.15945       37.91006
H         86.22206       31.04502       37.79031
H         86.24428       31.83578       40.55565
H         84.74330       33.76301       39.77476
H         84.52361       32.89153       38.23906
H         87.05971       33.07023       37.86424
H         87.18057       34.02992       39.37068
N         83.51136       30.15548       39.76623
C         82.30096       29.58068       40.31607
H         81.46907       29.70951       39.59216
H         82.45949       28.49253       40.47942
H         82.01271       30.04033       41.28323
H         83.83838       29.75930       38.88291
Ca        86.60703       37.83893       36.37542
O         86.31002       36.13913       33.77635
H         85.75724       35.97815       32.97100
H         87.23401       36.22010       33.42991
O         89.22384       38.03993       34.25253
H         89.49917       38.48541       33.41285
H         88.95409       38.78309       34.84765
O         89.08603       35.73712       36.16847
H         89.19661       35.07370       36.89490
H         89.24801       36.61019       36.60688

Ca 1.0



