%chk=holoCaM-CaMKII.loop3.water3.frame443.chk
%nprocshared=20
%mem=10GB
%nosave
#b3lyp/svp scf=(tight,noincore,xqc) Test 
#IOP(5/87=12) Density=Current Pop=(MK,readradii) iop(6/33=2) iop(6/42=6)

holoCaM-CaMKII.loop3.water3.frame443 

   0  1 
C         73.95132       83.30181       20.18815
C         74.17981       83.84966       21.55822
O         75.31907       84.13986       21.89917
H         73.28211       83.99247       19.63182
H         74.91315       83.22392       19.63707
H         73.48204       82.30089       20.25749
N         73.12425       84.07137       22.39172
C         73.30580       84.74626       23.66142
C         74.10360       83.87701       24.63846
O         73.62229       82.82859       25.04441
C         71.94578       85.17647       24.26603
C         72.16033       86.22234       25.30850
O         73.31443       86.89862       25.30336
O         71.28705       86.50159       26.11213
H         72.17153       83.85231       22.06246
H         73.87544       85.66500       23.40799
H         71.43442       84.28656       24.69281
H         71.28176       85.63229       23.50181
N         75.36894       84.23413       24.99443
C         76.27394       83.39616       25.77556
C         75.88680       83.27121       27.24792
O         76.13873       82.21352       27.80897
C         77.72535       83.90499       25.59077
C         78.83373       83.03082       26.20642
C         78.82933       81.58668       25.67803
C         80.01559       80.78909       26.23205
N         79.95934       79.39658       25.78714
H         75.75180       85.08406       24.57190
H         76.23443       82.38592       25.31602
H         77.81302       84.93265       26.00427
H         77.92494       83.96411       24.49655
H         78.74121       83.02417       27.31287
H         79.80718       83.50341       25.94560
H         78.88194       81.58946       24.56678
H         77.89423       81.08006       25.99331
H         79.99545       80.81522       27.34400
H         80.96687       81.25132       25.88519
H         80.78279       78.88000       26.17182
H         79.08435       78.94444       26.14032
H         79.98360       79.34747       24.74271
N         75.29524       84.29077       27.94469
C         74.87639       84.16072       29.34549
C         73.36574       84.29098       29.52772
O         72.91283       84.18397       30.66042
C         75.66262       85.09793       30.29652
C         75.62420       86.59514       30.10180
O         76.14075       87.29660       30.94865
O         75.10631       87.21179       29.03346
H         75.11036       85.17795       27.45784
H         75.11070       83.13829       29.71996
H         76.73575       84.80521       30.28496
H         75.29324       84.90028       31.32819
N         72.51025       84.44081       28.47385
C         71.06281       84.43789       28.63170
C         70.48865       85.65481       29.33542
O         69.28385       85.65684       29.54800
H         72.87738       84.46624       27.51368
H         70.76990       83.51913       29.18851
H         70.58606       84.37949       27.63021
N         71.24928       86.72059       29.73261
C         70.67638       87.84512       30.47908
C         69.65720       88.65959       29.67971
O         68.96357       89.46552       30.28405
C         71.77961       88.76551       31.04219
C         72.43807       89.60656       29.97921
N         72.47800       90.95235       30.08269
O         72.93968       89.07116       29.01017
H         72.26315       86.70242       29.56030
H         70.15971       87.39521       31.35681
H         72.54571       88.13712       31.54681
H         71.33877       89.43605       31.81058
H         72.06969       91.44071       30.89207
H         72.93866       91.50379       29.34751
N         69.51144       88.50740       28.33037
C         68.47338       89.15988       27.55111
C         68.97930       89.97053       26.37283
O         68.14237       90.29076       25.53990
H         70.11896       87.85168       27.82573
H         67.80540       89.79864       28.16840
H         67.84495       88.34280       27.13415
N         70.28078       90.37808       26.22276
C         70.72266       91.12054       25.03226
C         71.99106       90.53719       24.43713
O         72.63212       89.72413       25.08855
C         70.85177       92.63099       25.34400
C         71.98468       93.03112       26.26939
C         73.32242       92.96481       25.83710
C         71.71425       93.53206       27.55494
C         74.36286       93.37818       26.67147
C         72.76018       93.94259       28.39085
C         74.08924       93.86259       27.95083
O         75.10895       94.25036       28.74303
H         70.95761       90.19458       26.97884
H         69.93943       91.03585       24.24792
H         69.87788       92.94711       25.77896
H         70.97668       93.20234       24.39884
H         73.57020       92.61517       24.84723
H         70.69552       93.60525       27.91349
H         75.38526       93.32896       26.31930
H         72.53739       94.31970       29.38070
H         74.96733       94.58696       29.63885
N         72.41424       90.91160       23.18881
C         73.67249       90.44157       22.60606
C         74.53082       91.60154       22.10159
O         74.10226       92.74669       22.12462
C         73.43452       89.37197       21.49794
C         72.70257       89.93874       20.26044
C         72.70705       88.15933       22.09791
C         72.62959       88.93500       19.10614
H         71.81656       91.53941       22.63024
H         74.26935       89.94166       23.39650
H         74.42952       89.00901       21.16360
H         73.26441       90.81926       19.88232
H         71.67729       90.26694       20.53317
H         72.65097       87.31493       21.38282
H         73.27913       87.80139       22.97200
H         71.68073       88.42594       22.42654
H         72.02540       88.04580       19.37609
H         72.14943       89.41433       18.22840
H         73.65219       88.60874       18.81584
N         75.78869       91.34373       21.64626
C         76.73924       92.32788       21.14858
C         77.25514       91.89388       19.78111
O         76.81874       90.87340       19.27228
C         77.90656       92.42114       22.15042
O         78.56716       91.18522       22.25521
H         76.11856       90.37591       21.66833
H         76.27237       93.33373       21.07184
H         77.49251       92.73900       23.13682
H         78.64075       93.19321       21.83904
H         78.73564       91.01813       23.21871
N         78.22234       92.60621       19.14107
C         78.85132       92.16044       17.89954
C         79.59886       90.84815       18.10411
O         79.41171       89.93126       17.31754
C         79.83282       93.22214       17.39471
H         78.54729       93.48592       19.56999
H         78.07887       92.03682       17.10681
H         80.29045       92.89033       16.43743
H         79.29098       94.17372       17.20720
H         80.63935       93.40638       18.13544
N         80.45480       90.69298       19.15745
C         81.24507       89.48558       19.41057
C         80.38386       88.23586       19.43468
O         80.66400       87.30741       18.68945
C         81.99668       89.62208       20.74241
H         80.53957       91.47816       19.82203
H         82.00238       89.37431       18.60303
H         82.62083       88.72199       20.92797
H         82.66281       90.51049       20.71583
H         81.28483       89.74197       21.58808
N         79.29041       88.16875       20.23954
C         78.35901       87.03936       20.26832
C         77.84814       86.74581       18.86702
O         78.00580       85.62157       18.41101
C         77.20173       87.37189       21.23578
C         77.69203       87.32979       22.69871
C         76.75620       88.02749       23.63723
O         76.65433       89.23655       23.59251
O         76.09912       87.35852       24.59299
H         79.08539       88.99541       20.82094
H         78.87327       86.12203       20.63520
H         76.35976       86.65180       21.13685
H         76.81703       88.37337       20.95752
H         78.67496       87.83196       22.81598
H         77.81615       86.26323       22.98774
N         77.27806       87.72066       18.10870
C         76.84287       87.52377       16.74027
H         75.76594       87.77435       16.65439
H         77.42218       88.19750       16.07306
H         76.99444       86.48075       16.39118
H         77.17847       88.66070       18.50388
Ca        74.19365       87.71683       27.09441
O         75.78322       90.49083       28.78435
H         75.81541       91.17616       29.49687
H         75.47956       89.67386       29.24947
O         77.36930       87.48872       27.09210
H         77.90730       87.32203       27.90531
H         77.91935       88.10698       26.54847
O         75.95526       90.84539       25.77093
H         76.91109       90.99721       25.97989
H         75.78155       89.91326       26.05395

Ca 1.0



