%chk=holoCaM.loop4.water3.frame247.chk
%nprocshared=20
%mem=10GB
%nosave
#b3lyp/svp scf=(tight,noincore,xqc) Test 
#IOP(5/87=12) Density=Current Pop=(MK,readradii) iop(6/33=2) iop(6/42=6)

holoCaM.loop4.water3.frame247 

   -3  1 
C         27.83584       78.41784       66.55122
C         27.21469       79.58143       67.26022
O         26.76324       80.49854       66.59021
H         28.89406       78.30344       66.86178
H         27.27064       77.49442       66.79431
H         27.80125       78.57209       65.44982
N         27.16370       79.62164       68.62495
C         26.53181       80.72273       69.34443
C         26.80993       80.67862       70.84489
O         26.61761       79.65495       71.48588
C         25.01295       80.75542       69.08966
C         24.40921       81.94194       69.77747
O         23.51730       81.79886       70.59775
O         24.89381       83.16940       69.51862
H         27.60114       78.85303       69.15632
H         26.96242       81.67084       68.95049
H         24.53583       79.81563       69.44220
H         24.80738       80.86564       68.00611
N         27.21779       81.82612       71.45870
C         27.57167       81.97669       72.86370
C         26.60516       82.95206       73.56074
O         26.15352       82.63112       74.65086
C         29.04553       82.49537       72.94539
C         30.02063       81.52245       72.22134
C         29.48488       82.69765       74.41101
C         31.42948       82.09728       72.03086
H         27.30943       82.66551       70.87475
H         27.52935       80.99779       73.39555
H         29.08441       83.47807       72.42500
H         29.64399       81.30545       71.20235
H         30.07744       80.55588       72.76894
H         28.82000       83.41652       74.93119
H         29.46535       81.73152       74.96041
H         30.50724       83.12000       74.47266
H         31.93698       82.29046       72.99594
H         32.05189       81.37347       71.46283
H         31.37938       83.04232       71.44837
N         26.27173       84.16457       73.01231
C         25.52037       85.21864       73.71967
C         24.12205       85.52267       73.16314
O         23.44005       86.33646       73.77197
C         26.35490       86.52627       73.73034
C         26.76669       86.90934       72.33716
O         25.86530       86.93960       71.33989
O         27.95463       86.96759       72.05924
H         26.60843       84.37057       72.06374
H         25.34877       84.91336       74.77420
H         27.27729       86.36458       74.33075
H         25.78354       87.35367       74.19963
N         23.60647       84.92127       72.05695
C         22.24001       85.14908       71.59229
C         21.95800       86.57314       71.13590
O         21.07936       87.20470       71.70605
H         24.17605       84.23058       71.55922
H         21.53817       84.87554       72.41220
H         22.02622       84.47272       70.73930
N         22.63763       87.12820       70.08945
C         22.36810       88.47095       69.55637
C         22.03896       88.47491       68.05496
O         21.90833       89.55302       67.49109
C         23.55050       89.41811       69.86090
C         24.87505       89.05879       69.24756
O         25.02493       88.04032       68.59588
O         25.92161       89.88319       69.43386
H         23.38710       86.56940       69.65987
H         21.49299       88.92611       70.07134
H         23.68747       89.47600       70.96149
H         23.27999       90.43586       69.50319
N         21.84638       87.32461       67.34971
C         21.51383       87.28756       65.92974
C         22.68961       87.49870       64.98560
O         22.47123       87.36809       63.78782
H         21.83886       86.43068       67.85194
H         20.68616       87.99701       65.70932
H         21.13819       86.26653       65.70115
N         23.95306       87.78565       65.41630
C         25.11367       87.86684       64.52904
C         26.20497       86.89235       64.95325
O         26.09341       86.24283       65.98619
C         25.69333       89.30136       64.51271
C         24.76916       90.29339       63.79680
C         25.43292       91.64122       63.65412
N         25.75466       92.37890       64.74156
O         25.68539       92.07119       62.53794
H         24.11378       87.93522       66.41673
H         24.83569       87.58882       63.48796
H         26.64707       89.30825       63.94363
H         25.91931       89.63277       65.55046
H         23.80550       90.39921       64.33694
H         24.56056       89.89723       62.77741
H         25.54370       92.04025       65.69086
H         26.21204       93.29656       64.63187
N         27.31389       86.76682       64.17238
C         28.47997       85.94931       64.47267
C         29.67061       86.86756       64.66104
O         29.96500       87.66923       63.78255
C         28.69504       84.89437       63.34314
C         30.12957       84.33668       63.28468
C         27.72219       83.72095       63.55099
H         27.35536       87.31274       63.29641
H         28.35191       85.39819       65.42020
H         28.50892       85.36939       62.35485
H         30.21561       83.57903       62.47691
H         30.85442       85.14398       63.04782
H         30.42024       83.86601       64.23878
H         27.82960       82.97052       62.73998
H         27.95057       83.20991       64.51373
H         26.67016       84.07106       63.57780
N         30.43890       86.74694       65.78228
C         31.64555       87.51971       66.03108
C         32.85754       86.62994       65.78786
O         32.67789       85.52043       65.30584
C         31.58192       88.15027       67.44559
C         31.81531       87.19490       68.59482
N         30.79866       86.58238       69.23785
O         32.95191       87.03143       69.00036
H         30.20775       86.00876       66.46446
H         31.71437       88.36487       65.31101
H         30.61688       88.68666       67.57893
H         32.36346       88.93607       67.52313
H         29.82700       86.72280       68.94649
H         30.99014       85.96495       70.04215
N         34.12504       87.04909       66.04880
C         35.29980       86.21649       65.78717
C         35.27516       84.91881       66.59482
O         35.48926       83.86362       66.01765
C         36.59326       87.00088       66.07844
C         37.81991       86.22071       65.65925
C         38.01206       85.86481       64.31047
C         38.78163       85.84183       66.60880
C         39.14088       85.13870       63.92314
C         39.91184       85.11647       66.21808
C         40.09425       84.76188       64.87310
O         41.17882       84.06267       64.48283
H         34.25986       87.99889       66.42918
H         35.30384       85.96618       64.70331
H         36.62892       87.25369       67.16100
H         36.58488       87.95463       65.50690
H         37.29020       86.14789       63.55479
H         38.65614       86.10417       67.65158
H         39.27416       84.86962       62.88239
H         40.64428       84.83014       66.96164
H         41.86372       83.78456       65.10731
N         35.00609       84.92610       67.93306
C         34.96309       83.71933       68.76903
C         33.93116       82.68058       68.31486
O         33.94261       81.58958       68.87011
C         34.62246       84.06204       70.24344
C         35.59577       85.03440       70.93169
C         35.22077       85.29349       72.37117
O         34.24626       84.76079       72.88201
O         35.97167       86.13373       73.10726
H         34.84440       85.83880       68.36583
H         35.96821       83.24526       68.72129
H         34.62377       83.11724       70.83305
H         33.59632       84.49362       70.28207
H         35.59920       86.01303       70.41187
H         36.62159       84.61114       70.90300
N         33.00434       82.93603       67.34727
C         31.99090       81.97713       66.91451
C         32.17051       81.56994       65.45725
O         31.52401       80.61645       65.04600
C         30.60278       82.61956       67.05463
C         30.28653       83.09171       68.47599
C         29.03803       83.92441       68.51494
O         28.60022       84.40749       69.67919
O         28.44760       84.23104       67.49775
H         32.97907       83.86422       66.92293
H         32.05018       81.05163       67.52865
H         29.80664       81.91543       66.72139
H         30.59083       83.50806       66.39229
H         31.10489       83.73264       68.86525
H         30.17799       82.20640       69.13154
N         32.98293       82.26080       64.60511
C         33.16346       81.92282       63.20988
H         34.24448       81.76694       63.01257
H         32.61292       81.00499       62.91921
H         32.80531       82.76609       62.58210
H         33.48332       83.09257       64.92765
Ca        26.77477       85.71708       69.71593
O         23.53929       84.70308       67.76506
H         22.95962       84.43318       68.52078
H         23.08353       84.33719       66.96763
O         25.74883       83.40390       66.69955
H         25.26489       83.26404       65.84920
H         26.65803       83.07412       66.50995
O         27.84551       87.92799       68.22139
H         27.99925       88.23141       69.15268
H         27.77159       88.76024       67.69361

Ca 1.0



