%chk=holoCaM.loop3.water2.frame209.chk
%nprocshared=20
%mem=10GB
%nosave
#b3lyp/svp scf=(tight,noincore,xqc) Test 
#IOP(5/87=12) Density=Current Pop=(MK,readradii) iop(6/33=2) iop(6/42=6)

holoCaM.loop3.water2.frame209 

   0  1 
C          9.12087       51.39272       70.26936
C         10.61487       51.46308       70.21946
O         11.17433       51.19302       69.16558
H          8.69710       52.08505       69.51217
H          8.79409       50.35666       70.04055
H          8.73601       51.67739       71.27027
N         11.33425       51.79843       71.32949
C         12.78442       51.87947       71.32933
C         13.33885       50.73729       72.16030
O         13.08416       50.65863       73.35391
C         13.23360       53.26776       71.81545
C         14.70840       53.49014       71.68989
O         15.44339       52.61556       71.27018
O         15.22519       54.68035       72.02789
H         10.83842       51.97941       72.21578
H         13.15940       51.76882       70.28996
H         12.92824       53.42358       72.87178
H         12.74213       54.04010       71.18968
N         14.05677       49.76592       71.53441
C         14.51212       48.52963       72.16142
C         15.57632       48.76647       73.23442
O         15.78270       47.88684       74.05811
C         15.00823       47.60041       71.02529
C         15.14625       46.11097       71.35513
C         15.40244       45.33962       70.03983
C         15.34866       43.81326       70.18373
N         16.45066       43.28750       70.98516
H         14.19795       49.87182       70.52139
H         13.61270       48.06854       72.62732
H         15.95423       47.99929       70.59442
H         14.22799       47.64845       70.23150
H         14.18283       45.75965       71.78479
H         15.95778       45.94413       72.09311
H         16.37191       45.64952       69.59102
H         14.59657       45.60315       69.31817
H         15.40849       43.36928       69.16424
H         14.37297       43.51280       70.62648
H         17.36335       43.53853       70.54024
H         16.40956       43.65957       71.95966
H         16.36962       42.24549       71.02017
N         16.31989       49.91417       73.24968
C         17.36452       50.22257       74.23146
C         17.19626       51.59688       74.88934
O         18.00076       51.91690       75.75462
C         18.77202       50.10294       73.58677
C         19.03773       50.96952       72.36786
O         20.13120       50.92486       71.82927
O         18.06452       51.74162       71.84322
H         16.16615       50.57861       72.48749
H         17.33324       49.47589       75.05714
H         18.91701       49.04326       73.28350
H         19.53435       50.32823       74.36571
N         16.18899       52.45845       74.56222
C         16.00194       53.74814       75.21347
C         17.08459       54.78938       74.95495
O         16.97984       55.84870       75.55795
H         15.47859       52.17587       73.87845
H         15.92394       53.57725       76.30969
H         15.03805       54.18882       74.87693
N         18.14382       54.60058       74.10610
C         19.20701       55.60666       73.96391
C         18.73519       56.91426       73.31822
O         19.52337       57.84757       73.25971
C         20.43554       55.03346       73.20671
C         20.25046       54.94172       71.71666
N         21.13703       55.49826       70.85724
O         19.28838       54.35168       71.27942
H         18.23308       53.70544       73.60770
H         19.56526       55.82237       74.99399
H         20.65856       54.02159       73.60979
H         21.32104       55.67329       73.40332
H         21.97214       55.99345       71.19954
H         20.99643       55.42134       69.83813
N         17.48645       57.03950       72.77888
C         16.99064       58.23407       72.11620
C         16.70261       57.99314       70.64636
O         16.23209       58.91839       69.99980
H         16.84157       56.24544       72.81005
H         17.72020       59.07002       72.18101
H         16.05761       58.55587       72.62635
N         17.01295       56.81120       70.03129
C         16.88753       56.59358       68.59831
C         16.00489       55.36685       68.27274
O         16.07844       54.21305       69.06986
C         18.29441       56.53399       67.97477
C         18.93108       57.90854       68.02662
C         19.71700       58.30694       69.11960
C         18.70045       58.82471       66.98305
C         20.27005       59.59186       69.16374
C         19.25339       60.10819       67.02864
C         20.04189       60.49598       68.12047
O         20.57907       61.73181       68.18016
H         17.44470       56.05024       70.57107
H         16.36902       57.44542       68.10333
H         18.22779       56.24182       66.90454
H         18.92121       55.76973       68.47939
H         19.89264       57.63035       69.94180
H         18.08626       58.54740       66.13495
H         20.87262       59.88758       70.01319
H         19.06460       60.80114       66.21760
H         20.44261       62.38780       67.48124
N         15.94301       55.07791       66.84021
C         15.13078       53.92417       66.40474
C         15.55176       53.65372       64.97232
O         15.43017       54.53898       64.13658
C         13.57466       54.14894       66.52045
C         13.11231       54.16428       68.00757
C         12.81564       53.03478       65.75822
C         11.61182       54.38453       68.21928
H         15.62644       55.94038       66.33717
H         15.38983       53.02322       67.00225
H         13.31181       55.11599       66.03840
H         13.60063       54.98701       68.55538
H         13.39785       53.20243       68.48408
H         13.03220       52.03753       66.19578
H         11.72206       53.20780       65.76654
H         13.09121       53.02172       64.68389
H         11.30028       55.35364       67.77904
H         11.00444       53.56382       67.79132
H         11.39272       54.40568       69.30697
N         16.03812       52.43044       64.62112
C         16.46229       52.09184       63.26822
C         15.48956       51.10829       62.65505
O         14.56892       50.67763       63.33345
C         17.88520       51.50951       63.31379
O         17.90269       50.34311       64.09400
H         16.07412       51.68859       65.33478
H         16.46341       52.99595       62.62234
H         18.57071       52.26302       63.76092
H         18.22521       51.27425       62.28111
H         18.81518       49.96275       64.01274
N         15.61447       50.72679       61.34968
C         14.69845       49.76515       60.74447
C         14.84532       48.39085       61.37408
O         13.92098       47.59505       61.27057
C         14.91869       49.66764       59.23478
H         16.36218       51.14542       60.77636
H         13.66223       50.13605       60.91411
H         15.94635       49.30704       59.01531
H         14.18336       48.96746       58.78380
H         14.78058       50.66729       58.77046
N         15.98286       48.03802       62.03964
C         16.12838       46.78033       62.75633
C         15.15307       46.75558       63.91208
O         14.37192       45.82352       64.03416
C         17.55980       46.64167       63.29924
H         16.77643       48.69665       62.05677
H         15.95127       45.92433       62.06752
H         17.67308       45.67903       63.84195
H         18.28646       46.65861       62.45951
H         17.81384       47.46993       63.99492
N         15.15650       47.78778       64.80051
C         14.29322       47.86032       65.97328
C         12.82214       47.92655       65.59026
O         11.98839       47.59472       66.42198
C         14.65821       49.10207       66.81879
C         16.11405       49.05340       67.32433
C         16.50159       50.34752       67.97306
O         15.83842       50.79503       69.04999
O         17.42437       51.00582       67.52027
H         15.81817       48.55641       64.62410
H         14.46283       46.94613       66.58539
H         13.97908       49.18444       67.69657
H         14.51501       50.00444       66.18409
H         16.82330       48.88300       66.48973
H         16.23310       48.21463       68.04215
N         12.42136       48.37818       64.36803
C         11.02872       48.45413       63.98675
H         10.47209       49.10552       64.69355
H         10.94098       48.88414       62.96555
H         10.58331       47.43727       63.98315
H         13.11744       48.69594       63.68264
Ca        17.77816       52.89004       69.87026
O         19.23070       49.75230       69.41187
H         20.04971       49.55686       68.89208
H         19.16121       49.00963       70.06291
O         19.63771       53.14560       67.56867
H         20.32441       53.52550       68.17245
H         19.44157       53.87063       66.92396

Ca 1.0



