%chk=holoCaM-CaMKII.loop3.water2.frame184.chk
%nprocshared=20
%mem=10GB
%nosave
#b3lyp/svp scf=(tight,noincore,xqc) Test 
#IOP(5/87=12) Density=Current Pop=(MK,readradii) iop(6/33=2) iop(6/42=6)

holoCaM-CaMKII.loop3.water2.frame184 

   0  1 
C          2.18166       46.62663       20.09114
C          2.16435       45.75579       21.31006
O          1.27903       45.90619       22.13645
H          3.13723       47.19046       20.04848
H          2.08873       45.99275       19.18473
H          1.33927       47.35083       20.11105
N          3.13900       44.82344       21.48869
C          3.21486       43.92783       22.63349
C          4.43961       44.29641       23.44612
O          5.40934       43.55263       23.50189
C          3.22299       42.47213       22.13799
C          3.28837       41.50835       23.28434
O          4.22438       40.73295       23.37130
O          2.32854       41.50835       24.22760
H          3.88496       44.75412       20.77868
H          2.33117       44.04224       23.30154
H          4.08733       42.30954       21.45798
H          2.29286       42.27008       21.57065
N          4.43322       45.47473       24.12012
C          5.53624       45.94450       24.94883
C          5.76115       44.98588       26.11051
O          6.88103       44.53118       26.29700
C          5.25384       47.37238       25.47799
C          5.03480       48.38718       24.33461
C          4.77330       49.79941       24.87454
C          4.45098       50.81953       23.76471
N          3.19158       50.51945       23.07474
H          3.58093       46.04869       24.04725
H          6.46147       46.00934       24.33183
H          6.12321       47.70349       26.08862
H          4.35239       47.36173       26.12884
H          4.15920       48.07558       23.74010
H          5.92315       48.40728       23.66597
H          5.68184       50.14067       25.41721
H          3.92552       49.78033       25.59336
H          5.28359       50.86645       23.02844
H          4.35921       51.82052       24.24108
H          2.41134       50.43134       23.76612
H          2.96786       51.30164       22.41831
H          3.26798       49.64429       22.51035
N          4.72328       44.62558       26.92418
C          4.86752       43.75587       28.09816
C          5.39561       42.35278       27.80456
O          5.71232       41.64922       28.75419
C          3.53379       43.65034       28.87145
C          2.45480       42.91088       28.11990
O          2.05960       43.34991       26.91404
O          1.90115       41.94863       28.62567
H          3.80120       45.03759       26.71997
H          5.60345       44.25601       28.76550
H          3.16859       44.67690       29.09165
H          3.70609       43.14072       29.84440
N          5.52329       41.87251       26.53771
C          6.10237       40.57836       26.22848
C          5.30493       39.41874       26.77588
O          5.87877       38.59944       27.47960
H          5.22885       42.45025       25.74238
H          7.14834       40.54161       26.60753
H          6.14765       40.46240       25.12571
N          3.98670       39.26089       26.45766
C          3.20824       38.08039       26.83255
C          2.66371       37.35298       25.59590
O          1.92817       36.38872       25.75372
C          2.10026       38.45508       27.83903
C          0.87340       39.08028       27.22696
N         -0.33766       38.49543       27.39440
O          0.96522       40.11196       26.58368
H          3.52537       39.99656       25.90541
H          3.86003       37.36385       27.37814
H          2.52791       39.12404       28.61778
H          1.78518       37.52220       28.35469
H         -0.43694       37.62735       27.94207
H         -1.18552       38.90860       26.98470
N          3.02355       37.73494       24.33270
C          2.60980       37.05749       23.11614
C          1.23050       37.42716       22.60375
O          0.89471       36.94329       21.53304
H          3.72084       38.47774       24.21135
H          2.71893       35.95769       23.23377
H          3.30777       37.36920       22.30772
N          0.38247       38.26996       23.26693
C         -0.92617       38.65589       22.72682
C         -1.08467       40.16398       22.69892
O         -0.34601       40.86359       23.37404
C         -2.03437       38.07400       23.61938
C         -1.99602       36.57034       23.62778
C         -1.37355       35.88541       24.68267
C         -2.57869       35.84067       22.57949
C         -1.32775       34.48971       24.68659
C         -2.54699       34.44295       22.59339
C         -1.91746       33.76291       23.64703
O         -1.87385       32.41585       23.67190
H          0.65351       38.63814       24.18905
H         -1.05385       38.27759       21.68906
H         -3.04754       38.40929       23.30311
H         -1.87758       38.45883       24.64990
H         -0.91052       36.43268       25.49333
H         -3.06868       36.35382       21.76075
H         -0.83404       33.97379       25.50011
H         -3.01089       33.89054       21.78592
H         -2.27518       31.87532       22.97677
N         -2.07192       40.72799       21.94091
C         -2.41081       42.15010       22.00128
C         -3.91253       42.32432       22.19419
O         -4.66748       41.37810       22.03195
C         -1.88955       42.93267       20.75932
C         -2.45909       42.36809       19.43142
C         -0.35114       42.94042       20.76778
C         -2.02316       43.15300       18.19084
H         -2.62073       40.11727       21.31805
H         -1.93447       42.59907       22.90017
H         -2.21489       43.99268       20.86152
H         -3.56867       42.40361       19.47329
H         -2.14768       41.30994       19.29856
H          0.05695       43.59247       19.96974
H          0.01872       43.35282       21.73102
H          0.04960       41.91387       20.63554
H         -2.50832       42.71939       17.29106
H         -2.32249       44.21854       18.27913
H         -0.92681       43.08836       18.03533
N         -4.39887       43.53168       22.59586
C         -5.81544       43.80558       22.82507
C         -6.23297       45.07077       22.08921
O         -5.41154       45.67933       21.42767
C         -6.04665       43.95073       24.33863
O         -5.27832       45.00117       24.85450
H         -3.72409       44.27940       22.80340
H         -6.44855       42.96418       22.47008
H         -5.75182       42.99114       24.82240
H         -7.11987       44.13860       24.55574
H         -5.24600       44.87190       25.83759
N         -7.51054       45.53772       22.18488
C         -7.93437       46.82064       21.62737
C         -7.20370       47.96208       22.31415
O         -6.65560       48.81777       21.63297
C         -9.44295       47.00894       21.82093
H         -8.19941       44.97608       22.70568
H         -7.74457       46.84475       20.53058
H         -9.76204       47.98189       21.38742
H         -9.99259       46.19891       21.29645
H         -9.71519       46.98975       22.89747
N         -7.14270       48.01304       23.67663
C         -6.48054       49.07084       24.43680
C         -5.05108       49.27936       23.97924
O         -4.69094       50.40329       23.65857
C         -6.50228       48.72926       25.93352
H         -7.57848       47.23868       24.20267
H         -7.03792       50.02386       24.29840
H         -7.55084       48.61674       26.28291
H         -5.96186       47.77759       26.13019
H         -6.02286       49.53972       26.52287
N         -4.19304       48.22797       23.88728
C         -2.81826       48.35472       23.41293
C         -2.78956       48.96589       22.02649
O         -2.11887       49.96978       21.82952
C         -2.11363       46.98327       23.38597
C         -1.98353       46.38893       24.79435
C         -1.16572       45.14047       24.79451
O         -1.63808       43.99651       25.31942
O         -0.00398       45.18554       24.42640
H         -4.55399       47.29688       24.13220
H         -2.24587       49.01558       24.10323
H         -1.09141       47.13185       22.97288
H         -2.65409       46.27935       22.72001
H         -2.97348       46.17840       25.24273
H         -1.45800       47.12025       25.44597
N         -3.52456       48.42404       21.02191
C         -3.55448       48.97680       19.68856
H         -3.89678       50.03283       19.72328
H         -2.54304       48.92163       19.23571
H         -4.26298       48.39598       19.05965
H         -4.10484       47.60372       21.21841
Ca         0.12921       42.77061       25.92578
O         -2.32928       40.97692       25.64417
H         -3.18008       40.67100       25.24178
H         -2.48096       40.92355       26.62057
O         -1.18707       42.56350       28.66480
H         -1.93409       42.97798       28.16401
H         -1.57493       41.74076       29.05573

Ca 1.0



