%chk=holoCaM-CaMKII.loop2.water2.frame424.chk
%nprocshared=20
%mem=10GB
%nosave
#b3lyp/svp scf=(tight,noincore,xqc) Test 
#IOP(5/87=12) Density=Current Pop=(MK,readradii) iop(6/33=2) iop(6/42=6)

holoCaM-CaMKII.loop2.water2.frame424 

   -2  1 
C         47.60448       65.32150       22.93180
C         47.77548       64.76824       21.54594
O         48.79828       65.01969       20.92622
H         46.63678       65.00531       23.37763
H         48.42010       64.93766       23.58195
H         47.64199       66.42854       22.90907
N         46.82691       63.94990       21.01775
C         46.99746       63.25200       19.75253
C         46.81174       64.18011       18.55163
O         45.75159       64.77723       18.42760
C         45.97468       62.09366       19.68002
C         46.28905       61.09367       18.61198
O         47.33699       61.15653       17.99765
O         45.45571       60.05930       18.39847
H         46.00435       63.72379       21.59877
H         48.01039       62.79031       19.76015
H         44.95337       62.50445       19.53169
H         45.98696       61.52266       20.63310
N         47.78015       64.29436       17.59669
C         47.63684       65.06771       16.36212
C         47.70102       64.17741       15.11485
O         47.60564       64.70729       14.01630
C         48.74882       66.12111       16.30465
H         48.65608       63.77863       17.73215
H         46.65938       65.59633       16.34081
H         48.64754       66.74808       15.39230
H         48.68944       66.78673       17.19131
H         49.74767       65.63253       16.29035
N         47.86972       62.82546       15.20589
C         48.00720       61.91651       14.07557
C         46.89664       60.86088       14.05449
O         46.18158       60.80235       13.06334
C         49.43822       61.30824       14.05798
C         50.07251       60.99124       15.40428
O         51.11819       61.54199       15.70901
O         49.52954       60.11434       16.26850
H         47.94483       62.39919       16.12900
H         47.90640       62.46444       13.11014
H         50.09979       62.07442       13.59426
H         49.45965       60.42285       13.38625
N         46.69603       59.98897       15.08242
C         45.69352       58.93127       15.08811
C         46.31110       57.54522       15.23388
O         45.55855       56.58579       15.32288
H         47.27528       60.06417       15.91579
H         45.08143       58.94113       14.16091
H         45.00947       59.10902       15.94418
N         47.66441       57.35260       15.23152
C         48.31457       56.03951       15.28518
C         48.25601       55.34222       16.65607
O         48.86204       54.28734       16.78659
C         49.77414       56.16511       14.76658
C         50.69122       57.01770       15.60115
N         51.96145       57.24908       15.20114
O         50.29312       57.50861       16.63825
H         48.26907       58.17019       15.08159
H         47.81882       55.37486       14.54425
H         49.73293       56.61017       13.74811
H         50.22619       55.15476       14.67806
H         52.31656       56.85016       14.32084
H         52.58913       57.83666       15.76895
N         47.52436       55.82478       17.70367
C         47.39964       55.13601       18.98325
C         48.58368       55.28767       19.92577
O         48.48463       54.75949       21.02458
H         46.94094       56.65881       17.57333
H         47.16857       54.06115       18.81114
H         46.53239       55.57141       19.52597
N         49.71193       55.99246       19.60650
C         50.82100       56.19529       20.54106
C         51.10445       57.71488       20.73303
O         51.78602       58.23605       19.62872
C         52.08669       55.38935       20.09833
C         51.81051       53.88380       20.06000
O         52.62331       55.81811       18.86874
H         49.78604       56.40410       18.67374
H         50.53318       55.80439       21.54194
H         52.88154       55.53275       20.85680
H         51.88825       55.92760       18.21624
H         51.47569       53.53752       21.06211
H         51.02672       53.64013       19.31317
H         52.73923       53.33494       19.79634
N         51.86243       57.95536       21.97753
C         52.42092       59.31296       22.13124
C         53.72433       59.44152       21.33884
O         54.62195       58.63916       21.55523
C         52.69058       59.60121       23.64357
C         51.41736       59.33398       24.49126
C         53.18434       61.05226       23.82834
C         51.60964       59.56572       25.99349
H         52.59921       57.23885       22.16340
H         51.67186       60.05977       21.78716
H         53.48679       58.91140       24.00487
H         51.12526       58.26858       24.36907
H         50.57750       59.96833       24.13515
H         52.40614       61.77491       23.50138
H         53.45186       61.26049       24.88298
H         54.10674       61.23093       23.24515
H         50.68357       59.27606       26.53307
H         52.45174       58.95236       26.37888
H         51.79782       60.63535       26.21690
N         53.91932       60.47021       20.46116
C         55.19727       60.70198       19.78682
C         55.95826       61.80116       20.50505
O         55.44474       62.39258       21.43789
C         55.00207       61.06211       18.29799
C         54.42857       59.93486       17.49308
O         53.20284       59.46812       17.76162
O         55.06295       59.45326       16.56819
H         53.18344       61.17949       20.36012
H         55.84140       59.79824       19.85689
H         55.98651       61.31574       17.85066
H         54.34551       61.95498       18.20605
N         57.24714       62.06552       20.14980
C         58.09756       63.00399       20.87344
C         57.56747       64.43091       20.81855
O         57.49154       65.03264       21.88482
C         59.56576       62.83373       20.42024
C         60.58324       63.57858       21.25808
C         60.59923       63.46438       22.66357
C         61.57264       64.35420       20.62943
C         61.57306       64.12403       23.41739
C         62.55677       64.99644       21.38812
C         62.55444       64.88486       22.78051
H         57.66338       61.51814       19.38332
H         58.08194       62.68343       21.93555
H         59.68433       63.07541       19.34509
H         59.80770       61.75481       20.53865
H         59.86629       62.86812       23.18843
H         61.60040       64.44156       19.55062
H         61.57199       64.03565       24.49645
H         63.32689       65.57514       20.89542
H         63.31669       65.38190       23.36627
N         57.11769       65.04545       19.67947
C         56.46175       66.34794       19.66410
C         55.31662       66.43516       20.66444
O         55.23929       67.38791       21.42315
C         55.88547       66.45152       18.24006
C         56.88866       65.66235       17.43828
C         57.13968       64.46371       18.34934
H         57.22171       67.14211       19.84196
H         54.93140       65.88110       18.15894
H         55.68802       67.48845       17.89385
H         56.56822       65.39917       16.40714
H         57.82098       66.26815       17.38506
H         56.32004       63.71863       18.27430
H         58.11172       64.01514       18.07302
N         54.38147       65.44327       20.68754
C         53.18161       65.45600       21.52106
C         53.50521       65.41973       23.00595
O         52.67446       65.85374       23.79253
C         52.28494       64.24794       21.17025
C         51.84559       64.25433       19.68984
C         51.11071       63.00688       19.30211
O         50.79099       62.84146       18.13925
O         50.83954       62.04585       20.20201
H         54.53229       64.64857       20.05314
H         52.61598       66.38886       21.30107
H         51.37796       64.24319       21.81439
H         52.86312       63.32166       21.37872
H         52.72196       64.30547       19.01621
H         51.20929       65.14262       19.48798
N         54.66725       64.87676       23.46541
C         55.03126       64.80465       24.86490
H         55.99122       65.34122       25.01884
H         54.26500       65.25749       25.52749
H         55.16698       63.74120       25.15422
H         55.33236       64.47596       22.79707
Ca        50.49489       59.58103       18.27273
O         48.06182       58.33653       19.18941
H         47.89347       58.64743       18.26459
H         47.58285       58.97450       19.77062
O         48.70450       60.27547       21.80410
H         48.82333       61.09724       21.26886
H         47.82234       60.39797       22.23471

Ca 1.0



