%chk=holoCaM.loop3.water2.frame301.chk
%nprocshared=20
%mem=10GB
%nosave
#b3lyp/svp scf=(tight,noincore,xqc) Test 
#IOP(5/87=12) Density=Current Pop=(MK,readradii) iop(6/33=2) iop(6/42=6)

holoCaM.loop3.water2.frame301 

   0  1 
C         22.99950       43.99049       76.56116
C         23.18024       45.14948       77.49626
O         23.04553       44.97655       78.69906
H         23.94658       43.82048       76.00418
H         22.75179       43.06367       77.12089
H         22.18799       44.20844       75.83721
N         23.53304       46.36565       76.99709
C         23.85193       47.52229       77.82416
C         22.99480       48.70265       77.40194
O         22.99805       49.04481       76.22683
C         25.35103       47.79339       77.64793
C         25.93802       48.80708       78.58097
O         27.14382       48.98792       78.54993
O         25.20223       49.50306       79.46901
H         23.65493       46.45553       75.97545
H         23.68020       47.29347       78.89916
H         25.56881       48.08467       76.59708
H         25.88549       46.84107       77.85830
N         22.21166       49.35962       78.30623
C         21.28650       50.42225       77.91873
C         21.99626       51.59106       77.25544
O         21.59211       51.95793       76.16026
C         20.40383       50.91894       79.09103
C         19.59342       49.77103       79.73127
C         18.35630       50.23197       80.52064
C         18.64160       51.19793       81.67619
N         17.40300       51.51650       82.38961
H         22.24764       49.06225       79.29201
H         20.57065       49.99716       77.17741
H         19.68771       51.64825       78.64984
H         20.99837       51.44466       79.86991
H         20.25681       49.15774       80.37814
H         19.19673       49.11501       78.92604
H         17.86196       49.32178       80.92645
H         17.64780       50.72218       79.81761
H         19.08667       52.13653       81.27996
H         19.35649       50.73837       82.38511
H         16.70780       51.94651       81.73656
H         16.99662       50.64731       82.80739
H         17.60916       52.19410       83.15827
N         23.07164       52.20496       77.83285
C         23.74772       53.35101       77.21724
C         25.10712       53.00609       76.63156
O         25.71013       53.88522       76.03030
C         23.86152       54.52203       78.21994
C         24.76243       54.27347       79.40751
O         24.93601       55.25354       80.31315
O         25.35326       53.21574       79.55416
H         23.43124       51.82651       78.72168
H         23.14658       53.71916       76.35743
H         22.84638       54.77828       78.58933
H         24.26368       55.40917       77.68348
N         25.65429       51.76302       76.73837
C         26.93645       51.42870       76.14764
C         28.05351       52.26363       76.72771
O         28.70256       52.97573       75.97443
H         25.14563       51.01751       77.22958
H         26.87715       51.57732       75.04674
H         27.16402       50.35648       76.32475
N         28.35894       52.19396       78.05566
C         29.48795       52.90099       78.65451
C         30.62103       51.94939       79.03646
O         31.65480       52.44303       79.46495
C         29.06000       53.80433       79.84584
C         28.23314       53.16394       80.98426
N         28.37464       53.89145       82.24477
O         28.52617       51.82912       81.20809
H         27.80466       51.56233       78.64766
H         29.94867       53.58168       77.90539
H         28.44151       54.64555       79.46427
H         29.98462       54.25348       80.26839
H         28.35692       54.92263       82.08125
H         29.29011       53.63754       82.68708
N         30.52787       50.59331       78.88458
C         31.62085       49.67209       79.17785
C         31.33009       48.78667       80.37569
O         32.14922       47.93099       80.68041
H         29.65283       50.17161       78.54612
H         32.56395       50.21745       79.40083
H         31.80163       49.05148       78.27515
N         30.23471       48.99829       81.15570
C         29.97338       48.33858       82.42759
C         28.50009       47.99716       82.52737
O         27.70028       48.90231       82.34491
C         30.26157       49.35285       83.55482
C         31.68609       49.84086       83.56911
C         32.01435       51.06619       82.96422
C         32.68982       49.09800       84.20922
C         33.32662       51.54156       82.99937
C         34.00120       49.58327       84.25622
C         34.32291       50.80832       83.65138
O         35.58034       51.29250       83.69496
H         29.60467       49.76668       80.90910
H         30.61903       47.44486       82.57894
H         30.00997       48.92755       84.55160
H         29.59721       50.23448       83.41790
H         31.25441       51.65138       82.46060
H         32.45290       48.15608       84.68840
H         33.56610       52.48557       82.52627
H         34.76432       49.01039       84.76769
H         36.29559       50.82742       84.15159
N         28.04888       46.76345       82.88767
C         26.63021       46.52566       83.15870
C         26.43389       46.18962       84.62510
O         26.89550       45.15442       85.08424
C         25.98862       45.48155       82.19816
C         26.69802       44.10167       82.20740
C         25.93113       46.07573       80.78008
C         25.95222       43.03619       81.40109
H         28.72782       46.00401       83.04939
H         26.04505       47.45558       82.99489
H         24.93615       45.33916       82.53543
H         26.75098       43.70768       83.23862
H         27.73395       44.19859       81.81786
H         26.95210       46.24666       80.37838
H         25.37287       45.42013       80.08530
H         25.38781       47.04395       80.80117
H         24.92161       42.91076       81.79756
H         25.90453       43.29075       80.32425
H         26.48516       42.06666       81.49312
N         25.74772       47.04835       85.43569
C         25.42361       46.72496       86.82055
C         24.41541       45.58622       86.86088
O         23.93574       45.17397       85.81253
C         24.86099       47.96478       87.54195
O         23.69076       48.41027       86.91149
H         25.43321       47.95273       85.05226
H         26.35719       46.42382       87.34563
H         25.63601       48.76502       87.50961
H         24.64074       47.72447       88.60467
H         23.50362       49.31491       87.27378
N         24.04058       45.02188       88.04317
C         23.04770       43.95399       88.09919
C         21.68641       44.44106       87.62964
O         20.92274       43.63754       87.11229
C         22.94115       43.36932       89.50780
H         24.48219       45.35028       88.91578
H         23.38785       43.13046       87.43078
H         22.21839       42.52503       89.51649
H         23.93238       42.97902       89.82462
H         22.60830       44.14246       90.23164
N         21.31116       45.74509       87.78322
C         20.04765       46.27002       87.28042
C         20.03489       46.22740       85.76423
O         19.13619       45.62685       85.19169
C         19.83330       47.71201       87.75855
H         21.94929       46.39143       88.27219
H         19.20681       45.66817       87.69409
H         20.63752       48.38618       87.39603
H         18.85465       48.09146       87.39276
H         19.82202       47.74058       88.86913
N         21.02324       46.84439       85.04943
C         21.06963       46.86044       83.58790
C         21.24305       45.46972       82.98380
O         21.14481       45.36027       81.76894
C         22.23218       47.74718       83.07551
C         22.10461       49.21911       83.49099
C         23.23607       50.02734       82.92262
O         23.01068       50.94431       82.14908
O         24.50622       49.74742       83.26851
H         21.76062       47.33315       85.57460
H         20.10821       47.28516       83.21977
H         22.24438       47.71665       81.96244
H         23.19732       47.33507       83.44706
H         22.11704       49.32875       84.59450
H         21.14219       49.61368       83.11280
N         21.52756       44.37272       83.74418
C         21.71130       43.04502       83.19634
H         21.57908       43.01593       82.09479
H         22.73540       42.69069       83.43695
H         20.97422       42.35493       83.65734
H         21.64397       44.46257       84.75929
Ca        26.56090       50.76922       80.73690
O         25.27614       53.35541       83.14593
H         25.71578       54.00146       82.53960
H         25.57246       53.62929       84.04992
O         27.09241       50.99493       84.14268
H         26.98805       51.68763       84.84054
H         27.18032       50.14698       84.64670

Ca 1.0



