%chk=holoCaM.loop4.water3.frame248.chk
%nprocshared=20
%mem=10GB
%nosave
#b3lyp/svp scf=(tight,noincore,xqc) Test 
#IOP(5/87=12) Density=Current Pop=(MK,readradii) iop(6/33=2) iop(6/42=6)

holoCaM.loop4.water3.frame248 

   -3  1 
C         38.56554       78.98087       72.12688
C         38.23620       80.27928       72.79323
O         37.85667       81.21609       72.10551
H         39.62120       78.70975       72.33332
H         37.89366       78.18886       72.51759
H         38.42273       79.06026       71.02735
N         38.37591       80.41361       74.14313
C         38.05062       81.65048       74.84150
C         38.54848       81.59807       76.28058
O         38.21503       80.67300       77.00829
C         36.52556       81.90700       74.81719
C         36.16332       83.29590       75.26809
O         34.98852       83.60648       75.37389
O         37.11532       84.22408       75.48451
H         38.75188       79.61416       74.67639
H         38.57216       82.47912       74.31293
H         36.02093       81.15476       75.46038
H         36.11807       81.80350       73.79107
N         39.34105       82.59713       76.75142
C         39.94298       82.63454       78.07919
C         39.26508       83.70318       78.93519
O         39.07587       83.46047       80.11919
C         41.47626       82.91869       77.92927
C         42.15383       81.83782       77.04223
C         42.18004       83.01483       79.29861
C         43.60089       82.17386       76.65954
H         39.54574       83.38296       76.11936
H         39.82543       81.65775       78.60212
H         41.58626       83.90291       77.42622
H         41.59405       81.74504       76.09147
H         42.12013       80.84715       77.54511
H         41.73228       83.81628       79.92051
H         42.11020       82.05032       79.84460
H         43.24924       83.28370       79.18179
H         44.26990       82.19233       77.54193
H         43.98818       81.40185       75.96093
H         43.64605       83.15931       76.14836
N         38.92608       84.92269       78.42007
C         38.49206       86.06035       79.23471
C         37.07807       86.58537       78.93186
O         36.68598       87.55755       79.56255
C         39.56724       87.16653       79.10845
C         39.77437       87.72672       77.72379
O         39.09714       87.35964       76.78068
O         40.73628       88.64549       77.52254
H         39.06003       85.07681       77.41448
H         38.47464       85.77363       80.30893
H         40.53648       86.73073       79.43764
H         39.32206       88.00687       79.79036
N         36.23252       85.97893       78.04754
C         34.84140       86.39084       77.83234
C         34.62317       87.73216       77.13105
O         33.47197       88.10567       76.95764
H         36.54796       85.12457       77.57929
H         34.32134       86.40517       78.81478
H         34.34133       85.62284       77.20374
N         35.65494       88.50450       76.69676
C         35.51191       89.81739       76.04573
C         34.81052       89.84264       74.67843
O         34.64848       90.93476       74.14902
C         36.91358       90.44970       75.86296
C         37.87775       89.58082       75.08078
O         37.52579       88.33385       74.68274
O         39.01152       89.98109       74.88610
H         36.60262       88.16396       76.89309
H         34.92410       90.47526       76.72413
H         37.35787       90.62084       76.86700
H         36.81698       91.44225       75.37012
N         34.38924       88.72744       74.02641
C         33.79995       88.77069       72.69035
C         34.78318       89.21868       71.61196
O         34.35675       89.78766       70.61819
H         34.49172       87.81148       74.47708
H         32.88494       89.40274       72.68280
H         33.48180       87.74190       72.41592
N         36.10025       88.88471       71.70581
C         37.10631       89.04865       70.64597
C         38.14217       87.92538       70.74129
O         38.01350       87.08328       71.61044
C         37.80003       90.43184       70.71293
C         36.90434       91.57458       70.20316
C         37.66195       92.87004       70.00752
N         37.04638       94.06054       70.19056
O         38.81494       92.85081       69.60012
H         36.36739       88.36723       72.54935
H         36.63619       88.90951       69.64740
H         38.66913       90.40204       70.02437
H         38.18807       90.63579       71.73551
H         36.02848       91.73163       70.86650
H         36.53043       91.28483       69.19806
H         36.05852       94.10721       70.47775
H         37.55192       94.94098       70.00867
N         39.16574       87.79951       69.84329
C         40.12915       86.69834       69.91082
C         41.54807       87.25653       69.94800
O         41.94480       87.88945       68.97862
C         39.92409       85.74944       68.69316
C         40.80109       84.49646       68.81619
C         38.45735       85.30576       68.55865
H         39.23986       88.46681       69.06101
H         39.96027       86.09485       70.82686
H         40.19171       86.29039       67.75906
H         40.65997       83.83547       67.93548
H         41.87077       84.77174       68.86983
H         40.52426       83.92272       69.72644
H         38.13305       84.75290       69.45920
H         37.78721       86.17849       68.41122
H         38.33360       84.64039       67.67834
N         42.37771       87.06115       71.02249
C         43.75986       87.55567       71.03896
C         44.66649       86.57133       70.30054
O         44.15821       85.58446       69.79921
C         44.19686       87.95753       72.48643
C         45.02035       86.98786       73.29997
N         44.52779       86.34625       74.38248
O         46.20147       86.86879       73.03392
H         42.02750       86.54259       71.84123
H         43.76676       88.52571       70.49503
H         43.31593       88.29794       73.05300
H         44.83423       88.86622       72.42485
H         43.54709       86.45603       74.66743
H         45.14284       85.73343       74.94170
N         46.01035       86.75458       70.19209
C         46.90509       85.77751       69.55530
C         46.80783       84.40464       70.23246
O         46.54201       83.41906       69.55888
C         48.36130       86.28575       69.64939
C         49.36303       85.28720       69.11789
C         49.44130       84.99294       67.74670
C         50.22734       84.63172       70.01149
C         50.37756       84.06202       67.27974
C         51.15028       83.69489       69.54557
C         51.23176       83.40855       68.17645
O         52.12363       82.50911       67.71449
H         46.41395       87.60885       70.60526
H         46.63226       85.66919       68.48108
H         48.58034       86.48322       70.72092
H         48.47591       87.25349       69.11506
H         48.78690       85.48878       67.04064
H         50.17743       84.83449       71.07401
H         50.43899       83.84649       66.22039
H         51.80017       83.19297       70.25125
H         52.72739       82.03552       68.30503
N         47.03842       84.28461       71.57015
C         47.04429       83.03396       72.33460
C         45.69509       82.30357       72.34661
O         45.63495       81.20737       72.88618
C         47.46281       83.31259       73.80201
C         48.84562       83.98278       73.93579
C         49.16844       84.24996       75.37658
O         48.37648       85.05982       76.10671
O         50.15993       83.75504       75.88716
H         47.26872       85.14615       72.05976
H         47.79827       82.35789       71.87425
H         47.49309       82.35139       74.36165
H         46.69311       83.96350       74.27160
H         48.88144       84.96230       73.42014
H         49.61971       83.32692       73.48235
N         44.58681       82.82570       71.75324
C         43.29723       82.15459       71.65010
C         43.15549       81.60486       70.23974
O         42.83660       80.43261       70.09799
C         42.16191       83.13823       72.02929
C         42.28325       83.55691       73.50318
C         41.25941       84.55590       73.98041
O         41.32558       84.96417       75.12724
O         40.29114       85.03634       73.17986
H         44.65147       83.74164       71.30544
H         43.23250       81.28281       72.34087
H         41.17545       82.64647       71.87755
H         42.21849       84.03779       71.38095
H         43.28301       84.00793       73.66656
H         42.19990       82.64593       74.12564
N         43.46857       82.36505       69.15246
C         43.46265       81.87619       67.78992
H         44.49798       81.92046       67.38640
H         43.10328       80.82973       67.71500
H         42.81420       82.52653       67.16839
H         43.78362       83.32847       69.28519
Ca        38.94847       86.68624       74.00099
O         35.74033       85.91234       73.26595
H         35.30257       85.87143       72.37945
H         35.02118       85.68021       73.90255
O         37.83184       84.24264       72.03377
H         37.36972       83.70959       72.72285
H         37.09778       84.55356       71.44992
O         41.17153       88.17603       74.04597
H         40.78814       88.86072       73.44184
H         41.38162       88.65633       74.88394

Ca 1.0



