%chk=holoCaM-CaMKII.loop1.water2.frame133.chk
%nprocshared=20
%mem=10GB
%nosave
#b3lyp/svp scf=(tight,noincore,xqc) Test 
#IOP(5/87=12) Density=Current Pop=(MK,readradii) iop(6/33=2) iop(6/42=6)

holoCaM-CaMKII.loop1.water2.frame133 

   0  1 
C         21.15075       38.71833       67.88222
C         19.69180       38.46133       67.67362
O         18.95305       38.44516       68.64836
H         21.70007       38.72865       66.91778
H         21.27629       39.70933       68.36876
H         21.57698       37.93041       68.53533
N         19.19112       38.28636       66.41936
C         17.76697       38.14847       66.18075
C         17.21658       36.85274       66.78443
O         17.55377       35.78110       66.30037
C         17.46219       38.21086       64.65912
C         15.98687       38.27613       64.41239
O         15.53698       38.30557       63.28010
O         15.17516       38.33672       65.47680
H         19.83313       38.33123       65.61283
H         17.27961       39.03297       66.65408
H         17.89555       37.32488       64.14654
H         17.91271       39.12817       64.22124
N         16.33467       36.88965       67.82837
C         15.68229       35.70315       68.37385
C         14.42081       35.35856       67.59582
O         14.38302       34.27219       67.03281
C         15.34455       35.86463       69.87561
C         16.59121       35.74132       70.76534
C         16.22577       35.81023       72.25725
C         17.42599       35.42545       73.13623
N         17.08386       35.48796       74.55744
H         16.10767       37.80131       68.24132
H         16.36741       34.82830       68.28891
H         14.67156       35.02793       70.17099
H         14.80267       36.81883       70.05890
H         17.33715       36.52794       70.52081
H         17.04407       34.74520       70.56318
H         15.40493       35.09121       72.47381
H         15.87342       36.83564       72.50478
H         18.28321       36.10337       72.93219
H         17.73485       34.38461       72.88689
H         16.27194       34.86150       74.76465
H         17.90491       35.16822       75.12101
H         16.84993       36.47083       74.82654
N         13.32096       36.17779       67.57034
C         12.05012       35.73484       66.98663
C         12.03122       35.59406       65.45896
O         11.00171       35.19439       64.93302
C         10.80597       36.39501       67.65083
C         10.43202       37.85244       67.51996
O         11.10131       38.76093       66.79684
O          9.43267       38.22974       68.11098
H         13.34789       37.06447       68.09479
H         11.90521       34.68708       67.33785
H         10.90206       36.20608       68.74320
H          9.91503       35.82971       67.29901
N         13.15658       35.75181       64.69795
C         13.24335       35.34369       63.30070
C         12.50302       36.20457       62.30156
O         12.57713       35.88332       61.12361
H         14.03715       36.03980       65.14108
H         12.90018       34.28995       63.21145
H         14.31349       35.36865       62.99687
N         11.80839       37.32001       62.65712
C         11.18396       38.20174       61.67318
C         12.20947       38.72704       60.67033
O         11.97412       38.61453       59.47523
C         10.38115       39.34412       62.34992
C         11.07039       40.09739       63.45600
O         12.12530       40.67107       63.27549
O         10.48749       40.16885       64.66455
H         11.74685       37.57017       63.65131
H         10.42811       37.63012       61.08849
H          9.47099       38.89514       62.80355
H         10.04498       40.05854       61.56809
N         13.38052       39.27523       61.08726
C         14.40906       39.80567       60.20451
C         14.63837       41.26526       60.51669
O         14.56362       42.08607       59.61840
H         13.57007       39.28903       62.09446
H         14.14008       39.68912       59.13129
H         15.35027       39.24270       60.38147
N         14.93642       41.63840       61.79181
C         15.13140       43.00529       62.28057
C         15.61537       42.92783       63.72294
O         14.99900       42.25179       64.53676
C         13.86305       43.91532       62.25213
C         13.44367       44.47069       60.88057
O         12.77848       43.31402       62.90547
H         15.05464       40.87367       62.47262
H         15.92125       43.50837       61.68122
H         14.12843       44.83308       62.82353
H         12.28386       42.78383       62.22827
H         14.30311       44.97677       60.39228
H         13.02478       43.69626       60.21491
H         12.63564       45.21873       61.02727
N         16.70361       43.64426       64.10845
C         17.26124       43.61192       65.45220
C         16.78247       44.84748       66.18979
O         16.93734       45.94958       65.68339
C         18.81324       43.52810       65.37025
C         19.24242       42.26602       64.57297
C         19.43413       43.52644       66.78274
C         20.74148       42.21364       64.27258
H         17.13584       44.28697       63.42700
H         16.90580       42.71274       66.00489
H         19.17604       44.42923       64.82667
H         18.73344       42.26011       63.58555
H         18.93796       41.34680       65.12000
H         19.14265       44.43870       67.34167
H         19.10042       42.63531       67.35694
H         20.54086       43.53199       66.73723
H         21.34613       42.14469       65.19784
H         20.96146       41.31548       63.65769
H         21.04519       43.11498       63.69774
N         16.20643       44.72156       67.41908
C         15.69620       45.84414       68.19827
C         16.67279       46.17047       69.31184
O         17.69907       45.52359       69.41383
C         14.28746       45.50798       68.76009
C         13.27334       45.19935       67.64434
O         14.35975       44.45891       69.69919
H         16.18068       43.79055       67.85421
H         15.61871       46.75358       67.56381
H         13.89005       46.39321       69.29902
H         14.17422       43.59970       69.24187
H         13.17641       46.06743       66.96050
H         13.59012       44.31148       67.05597
H         12.27951       44.98516       68.09327
N         16.43181       47.19354       70.17531
C         17.34379       47.52855       71.26720
C         17.47081       46.36721       72.23958
O         18.58634       45.95705       72.53193
C         16.88336       48.80314       72.01815
C         16.94686       50.04167       71.11724
O         15.57838       48.64226       72.51299
H         15.57355       47.74782       70.04878
H         18.35385       47.75100       70.85306
H         17.59618       48.96402       72.86266
H         15.49262       49.23434       73.30500
H         16.26366       49.94738       70.24830
H         16.65486       50.94185       71.69755
H         17.98315       50.18846       70.74417
N         16.36129       45.79042       72.77809
C         16.40077       44.73205       73.78185
C         17.17698       43.52207       73.28042
O         18.08043       43.07170       73.97009
C         14.95901       44.34303       74.18105
C         14.90694       43.52244       75.47932
C         13.45839       43.15991       75.83551
C         13.37104       42.48825       77.21274
N         11.99696       42.08290       77.50966
H         15.44009       46.13729       72.46866
H         16.89808       45.14329       74.68968
H         14.46471       43.80453       73.34239
H         14.38380       45.27522       74.37907
H         15.34064       44.14141       76.29665
H         15.50487       42.59087       75.38242
H         13.05964       42.47639       75.05449
H         12.83233       44.07943       75.85770
H         13.71861       43.20580       77.99046
H         14.02957       41.59278       77.24211
H         11.96105       41.66602       78.46790
H         11.35680       42.90949       77.47587
H         11.68144       41.36477       76.81764
N         16.89620       42.97326       72.06239
C         17.60730       41.81802       71.50944
C         19.10155       42.09512       71.44153
O         19.86902       41.37058       72.06027
C         17.06781       41.45342       70.10112
C         15.58884       41.02197       70.13358
C         15.05447       40.70968       68.76245
O         14.49021       39.51536       68.51662
O         15.07359       41.55150       67.88022
H         16.15800       43.42104       71.50129
H         17.44538       40.94067       72.17511
H         17.66636       40.61418       69.68483
H         17.18695       42.32811       69.42637
H         14.96052       41.82694       70.55819
H         15.48027       40.12643       70.78274
N         19.58310       43.14539       70.72688
C         20.98934       43.47640       70.66691
H         21.56032       42.63833       70.21618
H         21.13545       44.38506       70.04327
H         21.37291       43.68717       71.68813
H         18.92630       43.74140       70.21833
Ca        13.00875       38.59929       65.69931
O         11.83538       41.41194       68.50807
H         11.61299       40.61905       69.05762
H         11.07519       42.03078       68.64648
O         11.59116       42.87356       65.73604
H         11.02692       43.27250       66.44442
H         11.07474       43.01841       64.90450

Ca 1.0



