%chk=holoCaM.loop4.water3.frame466.chk
%nprocshared=20
%mem=10GB
%nosave
#b3lyp/svp scf=(tight,noincore,xqc) Test 
#IOP(5/87=12) Density=Current Pop=(MK,readradii) iop(6/33=2) iop(6/42=6)

holoCaM.loop4.water3.frame466 

   -3  1 
C         35.98199       59.48015       96.85039
C         35.68053       58.13589       97.44326
O         34.96424       57.36477       96.82863
H         37.07657       59.55634       96.67046
H         35.46269       59.60794       95.87578
H         35.66773       60.28740       97.54142
N         36.24878       57.76891       98.62363
C         36.15664       56.42597       99.18291
C         35.63989       56.44100      100.61957
O         36.16151       57.18142      101.44084
C         37.55765       55.80983       99.08966
C         37.60643       54.43467       99.66173
O         38.48400       54.15828      100.64409
O         36.85503       53.56808       99.24549
H         36.86256       58.44792       99.10035
H         35.48524       55.78201       98.57079
H         38.29721       56.44844       99.61804
H         37.84593       55.75275       98.01649
N         34.63504       55.58904      100.98924
C         34.04022       55.51464      102.32705
C         34.31236       54.14176      102.98370
O         33.92426       53.95741      104.12761
C         32.49369       55.78210      102.18202
C         32.23049       57.12586      101.44370
C         31.73834       55.76890      103.53184
C         30.76851       57.31752      101.01934
H         34.25604       54.95348      100.27407
H         34.48741       56.29200      102.98468
H         32.07845       54.96568      101.54997
H         32.81235       57.15463      100.50079
H         32.56048       57.98052      102.07300
H         30.65412       55.93956      103.39403
H         31.78273       54.78479      104.03046
H         32.14011       56.54898      104.21248
H         30.44681       56.47470      100.37012
H         30.08240       57.39192      101.88469
H         30.67240       58.25907      100.43929
N         34.95805       53.12443      102.33502
C         34.95684       51.74366      102.84280
C         36.14851       50.86774      102.38360
O         36.20867       49.71941      102.80095
C         33.59688       51.07377      102.50754
C         33.27621       51.05015      101.03519
O         34.02321       51.75547      100.16716
O         32.33183       50.39379      100.62749
H         35.26939       53.29286      101.37547
H         35.04225       51.76377      103.95225
H         32.76506       51.59485      103.02935
H         33.62344       50.02944      102.88819
N         37.16268       51.34579      101.60735
C         38.40417       50.63249      101.30747
C         38.34722       49.44404      100.35178
O         39.40656       48.88325      100.10767
H         37.12961       52.32011      101.31966
H         38.85908       50.30148      102.26654
H         39.10815       51.35946      100.84654
N         37.19963       48.97784       99.78321
C         37.16566       47.77197       98.93344
C         37.79317       47.93012       97.54215
O         37.80749       46.95289       96.80673
C         35.70820       47.27148       98.79680
C         34.78734       48.25855       98.13881
O         35.27771       49.38382       97.59156
O         33.58156       48.08464       98.19244
H         36.31442       49.44001      100.03603
H         37.71541       46.96407       99.46461
H         35.33531       47.09806       99.83010
H         35.65936       46.30540       98.25095
N         38.29660       49.11270       97.09227
C         38.79910       49.30457       95.73704
C         37.69563       49.13287       94.71381
O         37.87819       48.41139       93.74272
H         38.30526       49.92872       97.71587
H         39.65566       48.62775       95.52780
H         39.16808       50.34932       95.64747
N         36.53025       49.81834       94.87052
C         35.40354       49.83134       93.93262
C         34.56248       51.09451       94.15248
O         34.87384       51.87481       95.04590
C         34.49409       48.58053       94.08163
C         35.20520       47.23326       93.87895
C         34.27061       46.04764       93.93143
N         34.77010       44.79653       93.80493
O         33.06763       46.20304       94.08644
H         36.48777       50.42201       95.69859
H         35.80246       49.89517       92.89520
H         33.68614       48.64730       93.32139
H         34.02461       48.58520       95.08943
H         35.95416       47.09550       94.68411
H         35.70944       47.22685       92.88849
H         35.78197       44.64522       93.67957
H         34.14638       43.97647       93.83758
N         33.49587       51.39120       93.35795
C         32.73083       52.62562       93.50931
C         31.27640       52.30430       93.83081
O         30.61112       51.64994       93.03869
C         32.89022       53.50441       92.23703
C         32.15623       54.84542       92.38756
C         34.37762       53.79236       91.95772
H         33.23767       50.74928       92.59160
H         33.13608       53.23343       94.34759
H         32.46941       52.96609       91.35950
H         32.28536       55.46394       91.47413
H         31.07138       54.68084       92.52713
H         32.55574       55.41477       93.25467
H         34.93826       52.85106       91.77989
H         34.48605       54.42126       91.04842
H         34.84329       54.32595       92.81537
N         30.71384       52.78678       94.97725
C         29.29731       52.68364       95.31931
C         28.58837       53.91955       94.79540
O         29.24515       54.79647       94.26922
C         29.17452       52.56131       96.86466
C         27.78019       52.46698       97.42945
N         26.95862       51.44793       97.09267
O         27.39889       53.30761       98.23010
H         31.29016       53.39576       95.57023
H         28.85045       51.79411       94.82376
H         29.68126       53.43706       97.32869
H         29.70025       51.65153       97.19417
H         27.26351       50.72033       96.43156
H         26.01430       51.38749       97.50053
N         27.23820       54.03556       94.84385
C         26.51684       55.21666       94.36182
C         26.72858       56.44987       95.24154
O         26.69878       57.54753       94.70160
C         25.03026       54.89340       94.07839
C         24.38178       54.06793       95.16633
C         24.05198       52.72525       94.89777
C         24.15331       54.58404       96.44825
C         23.52430       51.91055       95.89762
C         23.61898       53.76607       97.45064
C         23.30989       52.42366       97.17833
O         22.81643       51.61584       98.13749
H         26.71428       53.22228       95.18489
H         26.93181       55.48938       93.36343
H         25.03475       54.27851       93.15062
H         24.44810       55.81028       93.84348
H         24.23067       52.29613       93.91887
H         24.39856       55.61098       96.67210
H         23.29692       50.87485       95.67730
H         23.45628       54.17229       98.44020
H         22.67008       51.92181       99.04318
N         26.99637       56.36419       96.57990
C         27.32638       57.53726       97.40184
C         28.73269       58.07112       97.10553
O         29.14035       59.03930       97.73279
C         27.25914       57.19517       98.91199
C         25.87604       56.72081       99.38763
C         24.80470       57.74789       99.14296
O         24.90176       58.97351       99.69268
O         23.83878       57.47463       98.44893
H         26.97060       55.43802       97.02386
H         26.58391       58.34190       97.20684
H         27.52372       58.10176       99.50247
H         28.00870       56.40839       99.14962
H         25.92720       56.52374      100.47985
H         25.61167       55.76738       98.88605
N         29.53658       57.47372       96.18419
C         30.92068       57.82337       95.91920
C         31.02476       58.40237       94.51891
O         31.50315       59.51875       94.37557
C         31.78441       56.55217       96.09457
C         31.67481       56.00072       97.53343
C         32.44515       54.73168       97.77762
O         32.33293       54.11566       98.96826
O         33.14721       54.23474       96.91396
H         29.17666       56.68531       95.64982
H         31.28930       58.59243       96.63496
H         32.83776       56.78177       95.85108
H         31.44022       55.77064       95.38651
H         30.61036       55.77420       97.75293
H         32.02921       56.76944       98.25056
N         30.55166       57.72159       93.43951
C         30.56274       58.26175       92.09987
H         29.98018       59.20706       92.07003
H         31.60534       58.44562       91.77048
H         30.08754       57.53782       91.40184
H         30.13714       56.79691       93.56580
Ca        34.20046       51.26762       98.01580
O         31.76616       50.49478       96.97044
H         32.15626       49.61458       96.75180
H         31.63054       50.47608       97.95231
O         37.50819       52.25685       96.99306
H         38.35353       52.33215       97.50129
H         37.78071       52.34370       96.04646
O         35.93105       54.49870       96.12011
H         36.54722       54.31918       95.36774
H         35.22694       55.06609       95.72121

Ca 1.0



