%chk=holoCaM.loop4.water3.frame469.chk
%nprocshared=20
%mem=10GB
%nosave
#b3lyp/svp scf=(tight,noincore,xqc) Test 
#IOP(5/87=12) Density=Current Pop=(MK,readradii) iop(6/33=2) iop(6/42=6)

holoCaM.loop4.water3.frame469 

   -3  1 
C         24.10842       60.48096       91.29544
C         23.61892       59.28741       92.05610
O         24.00130       58.18062       91.70287
H         25.21822       60.50719       91.33455
H         23.78641       60.40055       90.23585
H         23.71415       61.42561       91.72237
N         22.75177       59.42337       93.10249
C         22.27731       58.27255       93.85979
C         21.11492       58.65598       94.77174
O         21.27112       59.52806       95.61575
C         23.43365       57.66491       94.69336
C         23.08310       56.33502       95.29685
O         23.96898       55.70905       96.09390
O         22.02460       55.79177       95.03319
H         22.40166       60.36463       93.33931
H         21.91799       57.51706       93.12611
H         23.71966       58.37768       95.49703
H         24.32811       57.48785       94.06309
N         19.91826       58.01047       94.65177
C         18.72526       58.30497       95.44555
C         18.34171       57.11590       96.34181
O         17.57901       57.31969       97.27545
C         17.53970       58.62493       94.46435
C         17.91689       59.74690       93.45881
C         16.23305       58.98202       95.20814
C         16.88941       59.92493       92.33272
H         19.84353       57.27958       93.93466
H         18.92270       59.17885       96.10571
H         17.35365       57.70029       93.87104
H         18.86953       59.48543       92.95438
H         18.06495       60.70966       93.99304
H         16.37015       59.89851       95.81976
H         15.39459       59.13987       94.50336
H         15.88874       58.15616       95.85785
H         16.74895       58.96745       91.78491
H         15.90956       60.27454       92.71249
H         17.25537       60.68663       91.61354
N         18.73869       55.83823       96.05712
C         18.16902       54.64956       96.70158
C         19.17868       53.72755       97.37863
O         18.74416       52.78601       98.02915
C         17.36349       53.85403       95.64319
C         18.17347       53.35592       94.45499
O         19.49943       53.61283       94.35135
O         17.60750       52.73611       93.57052
H         19.37932       55.69556       95.27601
H         17.45968       54.96216       97.49909
H         16.55695       54.51519       95.25619
H         16.87620       52.98409       96.13526
N         20.52248       53.90489       97.27233
C         21.50630       53.04940       97.92087
C         21.54671       51.59426       97.46184
O         22.37415       50.87257       98.00109
H         20.87640       54.70762       96.74725
H         21.32820       53.07265       99.01714
H         22.51611       53.47682       97.73320
N         20.71997       51.06824       96.50528
C         20.76156       49.65276       96.11794
C         22.00498       49.26408       95.30478
O         22.08824       48.11473       94.89298
C         19.44635       49.21696       95.41393
C         19.12273       49.86853       94.10196
O         19.91248       50.81541       93.58494
O         18.11271       49.54139       93.50029
H         20.00127       51.66424       96.07877
H         20.76867       49.04123       97.04728
H         18.59795       49.41698       96.10340
H         19.48912       48.11944       95.24169
N         23.02829       50.13671       95.06464
C         24.23162       49.78628       94.32583
C         24.03889       49.76084       92.82400
O         25.02437       49.54834       92.13163
H         23.00321       51.07812       95.46613
H         24.64820       48.82522       94.70074
H         24.99533       50.57146       94.51559
N         22.82507       49.98649       92.24053
C         22.61838       50.03946       90.80020
C         21.94759       51.38760       90.41421
O         22.54884       52.43349       91.12574
C         21.74665       48.84168       90.36776
C         22.40423       47.49929       90.72871
C         21.56249       46.34226       90.25773
N         21.05750       45.44784       91.13918
O         21.33874       46.20659       89.06386
H         22.00285       50.12558       92.82905
H         23.59534       49.97262       90.27053
H         21.59177       48.86171       89.27046
H         20.75297       48.90844       90.86416
H         22.54201       47.43905       91.82982
H         23.40517       47.42761       90.25012
H         21.23311       45.54163       92.15016
H         20.48478       44.65697       90.80911
N         22.09648       51.63021       88.97225
C         21.55788       52.90423       88.45397
C         20.11880       52.73378       87.96197
O         19.85263       51.81512       87.19883
C         22.49826       53.39448       87.31925
C         22.03693       54.74085       86.73750
C         23.93777       53.55558       87.84803
H         21.81307       50.82296       88.37452
H         21.59108       53.69286       89.23568
H         22.50885       52.64128       86.50061
H         22.72612       55.06464       85.92850
H         21.02184       54.65754       86.29976
H         22.02988       55.52328       87.52555
H         24.61476       53.89415       87.03553
H         23.97189       54.30152       88.67237
H         24.33406       52.59177       88.23159
N         19.15577       53.63713       88.31021
C         17.76026       53.56484       87.87295
C         17.48745       54.62785       86.81634
O         18.37100       55.41009       86.51143
C         16.85994       53.75765       89.12324
C         15.37396       53.67811       88.88508
N         14.80527       52.53813       88.43101
O         14.67207       54.64988       89.12433
H         19.43482       54.45063       88.87625
H         17.55681       52.57869       87.40202
H         17.09878       54.74811       89.57296
H         17.09799       52.97863       89.86811
H         15.37833       51.70551       88.23397
H         13.78701       52.48842       88.28107
N         16.28794       54.67662       86.17168
C         15.92412       55.68044       85.16913
C         15.65761       57.07710       85.75196
O         15.40353       57.97748       84.96755
C         14.74677       55.16162       84.30289
C         13.55179       54.68712       85.09949
C         13.23441       53.31583       85.11243
C         12.76132       55.57760       85.84035
C         12.15997       52.84306       85.86564
C         11.68207       55.10206       86.59363
C         11.38197       53.73109       86.61179
O         10.35295       53.25553       87.34087
H         15.62512       53.91662       86.36553
H         16.77330       55.79322       84.45722
H         15.15211       54.29595       83.73262
H         14.43818       55.91688       83.54831
H         13.83004       52.60539       84.55178
H         12.97755       56.63627       85.83588
H         11.93863       51.78299       85.87382
H         11.08262       55.79881       87.16505
H          9.79259       53.83260       87.87818
N         15.76200       57.35068       87.08872
C         15.68041       58.70517       87.65097
C         17.06886       59.18402       88.07151
O         17.17584       60.26105       88.64951
C         14.73239       58.71502       88.87519
C         13.27462       58.34792       88.55513
C         12.54969       59.35801       87.69991
O         11.38520       59.15603       87.39651
O         13.14447       60.49740       87.29425
H         16.00980       56.59662       87.74095
H         15.32494       59.43580       86.89746
H         14.73574       59.71800       89.35784
H         15.12121       57.98568       89.62008
H         12.71882       58.27362       89.51483
H         13.24800       57.35216       88.07093
N         18.18034       58.45618       87.78167
C         19.53947       58.79323       88.16270
C         20.36000       59.03329       86.90628
O         20.94346       60.09804       86.77392
C         20.13146       57.63826       88.99611
C         19.29033       57.35026       90.25491
C         19.81747       56.20345       91.07274
O         19.12108       55.78425       92.14455
O         20.85100       55.63035       90.76967
H         18.07494       57.58921       87.25211
H         19.56463       59.71516       88.78719
H         21.17302       57.89237       89.29147
H         20.15490       56.71647       88.37676
H         18.25617       57.08476       89.94858
H         19.25035       58.25622       90.89435
N         20.41995       58.09222       85.91882
C         21.15214       58.29448       84.68896
H         22.23423       58.40484       84.90524
H         21.00872       57.41808       84.01915
H         20.77528       59.19852       84.16496
H         19.91261       57.20724       86.02199
Ca        21.02458       53.10640       92.72006
O         19.07339       51.81076       90.89632
H         18.32801       51.21394       91.15411
H         18.84825       52.68643       91.29990
O         23.57469       53.26465       94.14946
H         24.46891       53.10179       94.53979
H         22.96767       53.32003       94.92996
O         23.68300       55.10334       91.66364
H         24.57827       55.17160       92.07982
H         23.06261       55.44200       92.35638

Ca 1.0



