%chk=holoCaM-CaMKII.loop1.water2.frame359.chk
%nprocshared=20
%mem=10GB
%nosave
#b3lyp/svp scf=(tight,noincore,xqc) Test 
#IOP(5/87=12) Density=Current Pop=(MK,readradii) iop(6/33=2) iop(6/42=6)

holoCaM-CaMKII.loop1.water2.frame359 

   0  1 
C         58.31145       66.74311       29.67253
C         59.63461       67.18601       30.21023
O         59.88016       68.38086       30.29059
H         57.68680       67.61904       29.39725
H         58.46953       66.11162       28.77409
H         57.78061       66.15320       30.44937
N         60.54438       66.25863       30.61390
C         61.82726       66.62113       31.19338
C         62.65645       67.40272       30.18017
O         62.83137       66.90142       29.07762
C         62.58070       65.35435       31.65871
C         63.71515       65.71988       32.55546
O         63.87978       67.00586       32.88348
O         64.45699       64.86663       33.00531
H         60.29459       65.26043       30.53481
H         61.60793       67.23894       32.09015
H         62.94208       64.77635       30.78185
H         61.90711       64.71022       32.26098
N         63.15831       68.64684       30.46450
C         63.73100       69.51711       29.43940
C         65.22065       69.81394       29.61278
O         65.79975       70.35650       28.68165
C         62.85597       70.78951       29.38271
C         62.92312       71.60900       28.08160
C         62.58981       70.80571       26.80307
C         61.27648       70.00007       26.89526
N         61.00476       69.29273       25.64548
H         63.04376       69.02783       31.40981
H         63.65343       68.98508       28.47324
H         63.07801       71.43470       30.26064
H         61.79363       70.48424       29.49618
H         63.92312       72.07603       27.96368
H         62.17991       72.43100       28.18240
H         63.42086       70.10554       26.57884
H         62.52679       71.52216       25.95576
H         60.42733       70.67804       27.13126
H         61.35244       69.24115       27.70392
H         60.85409       69.97832       24.87119
H         61.80311       68.65876       25.41004
H         60.14163       68.71345       25.76216
N         65.92272       69.44158       30.72698
C         67.38804       69.48578       30.80704
C         67.96901       68.07888       31.00136
O         69.18447       67.96038       31.07790
C         67.92368       70.51172       31.84774
C         67.54411       70.31425       33.28633
O         68.01809       71.03540       34.14735
O         66.66120       69.38613       33.64128
H         65.41004       69.04060       31.52283
H         67.81098       69.84130       29.84069
H         67.60073       71.53273       31.55222
H         69.03516       70.48689       31.79704
N         67.18086       66.95781       30.99580
C         67.72067       65.60602       30.99428
C         68.31124       65.12456       32.30528
O         68.82852       64.01587       32.30561
H         66.16379       67.03902       30.86290
H         68.48152       65.53001       30.18697
H         66.90279       64.89522       30.74188
N         68.25738       65.84505       33.46538
C         68.82730       65.34728       34.72468
C         68.09477       64.12190       35.30480
O         68.50729       63.63588       36.34840
C         68.91145       66.48954       35.76648
C         67.60134       66.95211       36.34052
O         66.55617       66.38489       36.07342
O         67.59244       67.98451       37.20343
H         67.83622       66.78506       33.44812
H         69.88250       65.06103       34.51826
H         69.41952       67.35533       35.28756
H         69.54020       66.16062       36.62102
N         67.01355       63.56692       34.68598
C         66.27789       62.41268       35.17477
C         65.35703       62.74467       36.32746
O         65.29183       61.98120       37.27472
H         66.68579       63.94960       33.79297
H         66.95116       61.55310       35.38166
H         65.59194       62.09556       34.35777
N         64.52214       63.81478       36.21428
C         63.39572       64.16358       37.09268
C         62.54258       65.25327       36.42761
O         62.99385       65.90767       35.49891
C         63.78375       64.63305       38.53086
C         64.21879       63.54130       39.51802
O         64.73234       65.66572       38.48705
H         64.65303       64.36436       35.35903
H         62.73259       63.27302       37.15369
H         62.86058       65.04069       38.99870
H         65.60446       65.25498       38.24878
H         63.44862       62.74154       39.56561
H         65.20543       63.11292       39.27599
H         64.31697       63.98554       40.53177
N         61.26063       65.46906       36.83730
C         60.36986       66.42859       36.18820
C         59.97444       67.46821       37.21281
O         59.50012       67.09290       38.27695
C         59.10831       65.72480       35.59863
C         59.49386       64.48567       34.74805
C         58.30499       66.73949       34.75123
C         58.28455       63.70045       34.22963
H         60.88543       64.90731       37.61725
H         60.88375       66.92478       35.33549
H         58.47694       65.36571       36.44151
H         60.07206       63.78079       35.38289
H         60.13251       64.78658       33.89119
H         58.02466       67.62807       35.35015
H         58.90920       67.08081       33.88063
H         57.35952       66.30368       34.37379
H         57.69178       64.29267       33.50423
H         58.63327       62.78599       33.70556
H         57.63263       63.39389       35.07582
N         60.10342       68.79795       36.94647
C         59.72450       69.82812       37.90858
C         58.36211       70.38925       37.56160
O         57.79803       70.02414       36.54493
C         60.79028       70.95872       37.97054
C         62.19188       70.43810       38.29727
O         60.81505       71.70747       36.78106
H         60.40789       69.08290       36.00558
H         59.63393       69.37955       38.92198
H         60.51249       71.66027       38.78507
H         61.26111       71.16672       36.08134
H         62.90084       71.29119       38.36250
H         62.19224       69.89441       39.26393
H         62.53661       69.75929       37.49087
N         57.75999       71.27981       38.39153
C         56.48912       71.93390       38.08486
C         56.64638       72.81249       36.85164
O         55.82561       72.74345       35.94826
C         56.00721       72.78247       39.28869
C         55.67085       71.89092       40.49372
O         56.98518       73.72564       39.64720
H         58.24475       71.51887       39.26936
H         55.69823       71.17327       37.89218
H         55.07381       73.30830       38.97919
H         56.54688       74.38344       40.24723
H         54.87920       71.16116       40.21949
H         56.56176       71.33267       40.84902
H         55.29308       72.51405       41.33111
N         57.72832       73.63199       36.74899
C         58.01733       74.53097       35.63239
C         57.97725       73.79618       34.30245
O         57.24516       74.20275       33.41130
C         59.41441       75.14229       35.88569
C         59.86135       76.21509       34.88358
C         61.22205       76.81559       35.29432
C         62.40183       75.83523       35.13680
N         63.63951       76.42338       35.64865
H         58.41408       73.59036       37.51918
H         57.26023       75.34586       35.61786
H         60.15099       74.31502       35.91242
H         59.39715       75.61698       36.89199
H         59.10512       77.02940       34.90401
H         59.91612       75.81126       33.84955
H         61.15458       77.16103       36.34974
H         61.42923       77.70368       34.65942
H         62.52237       75.58583       34.05893
H         62.22403       74.89083       35.68942
H         63.84237       77.33083       35.17121
H         63.55341       76.57876       36.68012
H         64.43075       75.76125       35.47760
N         58.73261       72.68313       34.12116
C         58.75932       71.88792       32.89686
C         57.36795       71.37394       32.56914
O         56.87669       71.64804       31.48271
C         59.77100       70.73390       33.07359
C         61.20920       71.29317       33.14530
C         62.23594       70.26864       33.52904
O         63.41248       70.58888       33.57250
O         61.88291       69.00999       33.84801
H         59.30321       72.37461       34.91876
H         59.10314       72.51437       32.04260
H         59.71773       70.03004       32.21818
H         59.51418       70.17259       33.99895
H         61.28477       72.10997       33.89083
H         61.46627       71.71780       32.15106
N         56.65541       70.65756       33.47655
C         55.30432       70.20613       33.22768
H         54.64740       71.07783       33.01825
H         55.28668       69.50826       32.36514
H         54.91140       69.68070       34.12473
H         57.07393       70.45134       34.38649
Ca        65.23271       67.89101       34.34134
O         64.73645       71.28983       36.09218
H         65.46078       70.96738       35.50022
H         65.19024       71.49485       36.94737
O         64.81885       68.55490       37.66405
H         64.07634       68.08477       38.11871
H         65.15131       69.19926       38.33811

Ca 1.0



