%chk=holoCaM-CaMKII.loop1.water1.frame126.chk
%nprocshared=20
%mem=10GB
%nosave
#b3lyp/svp scf=(tight,noincore,xqc) Test 
#IOP(5/87=12) Density=Current Pop=(MK,readradii) iop(6/33=2) iop(6/42=6)

holoCaM-CaMKII.loop1.water1.frame126 

   0  1 
C         15.00337       64.35169       67.70287
C         14.38251       65.21483       66.65715
O         13.21067       65.54540       66.78005
H         15.85946       64.89683       68.15474
H         14.26576       64.12669       68.50286
H         15.35723       63.40670       67.24659
N         15.13067       65.67514       65.61590
C         14.58146       66.63724       64.68311
C         13.56550       65.97684       63.76517
O         13.95164       65.16670       62.93221
C         15.68892       67.29917       63.84778
C         15.17804       68.54097       63.19671
O         15.88766       69.14519       62.41389
O         13.99868       69.07139       63.58129
H         16.12947       65.42135       65.56351
H         14.11532       67.42945       65.31315
H         16.07981       66.58406       63.09029
H         16.53661       67.61203       64.49490
N         12.23980       66.24517       63.89243
C         11.23045       65.57145       63.08918
C         11.14799       66.18078       61.69734
O         11.38934       65.46880       60.73202
C          9.86138       65.56274       63.81250
C          9.91174       64.95511       65.23895
C         10.50511       63.53519       65.28720
C         10.50396       62.96491       66.71159
N         11.11903       61.63682       66.73763
H         11.94399       66.85531       64.66436
H         11.51485       64.50316       62.97347
H          9.14548       64.97271       63.19897
H          9.46479       66.59730       63.90047
H          8.87508       64.93480       65.64040
H         10.51067       65.61021       65.90638
H         11.56120       63.56099       64.94672
H          9.92151       62.86494       64.61993
H          9.45890       62.89668       67.08595
H         11.07630       63.64128       67.38545
H         11.09987       61.26643       67.71507
H         10.59140       60.98188       66.11585
H         12.11468       61.69556       66.42077
N         10.78899       67.48683       61.51171
C         10.61609       68.08137       60.18277
C         11.91683       68.22129       59.37510
O         11.82707       68.56872       58.20574
C          9.82503       69.40738       60.27579
C         10.53089       70.49879       61.02324
O         10.00802       70.98803       62.16381
O         11.55393       70.98205       60.57607
H         10.55124       68.04699       62.34230
H          9.95195       67.39539       59.60932
H          8.86252       69.19267       60.79049
H          9.58131       69.77775       59.25639
N         13.14356       67.91268       59.89303
C         14.35696       67.81989       59.08461
C         14.97333       69.11773       58.57621
O         15.99238       69.01762       57.90720
H         13.21683       67.60667       60.87316
H         14.15592       67.14629       58.22316
H         15.14247       67.33281       59.70348
N         14.47609       70.35699       58.85744
C         15.13483       71.60108       58.41359
C         16.55876       71.77652       58.96763
O         17.24432       72.67056       58.49253
C         14.28189       72.86415       58.75884
C         13.96950       72.97670       60.22740
O         14.39273       71.98518       61.01374
O         13.22336       73.84127       60.65667
H         13.60343       70.41041       59.39293
H         15.22074       71.54966       57.30640
H         13.31211       72.78449       58.22283
H         14.79656       73.78563       58.41275
N         17.06662       70.99132       59.96520
C         18.43571       71.08954       60.45995
C         18.53626       71.55632       61.90115
O         19.65012       71.58149       62.40845
H         16.47159       70.27674       60.39472
H         19.04086       71.79276       59.84889
H         18.90283       70.08523       60.36849
N         17.45450       71.99531       62.60867
C         17.53847       72.54072       63.96332
C         16.62511       71.80944       64.92850
O         15.82119       70.99238       64.51163
C         17.16208       74.04712       63.93486
C         18.24345       74.86670       63.23062
O         15.93904       74.24993       63.26869
H         16.53314       72.00139       62.15569
H         18.56896       72.43228       64.36928
H         17.09450       74.45734       64.96758
H         15.22653       73.82922       63.81544
H         19.20672       74.76680       63.77603
H         18.38328       74.53069       62.18201
H         17.95692       75.93990       63.22586
N         16.70167       72.07622       66.26059
C         15.83072       71.48706       67.27007
C         15.11207       72.62511       67.97236
O         15.77524       73.52703       68.47048
C         16.65108       70.62946       68.28224
C         17.41068       69.49388       67.54536
C         15.71436       70.04033       69.36146
C         18.33409       68.68014       68.45834
H         17.41977       72.74474       66.58434
H         15.08119       70.80716       66.80454
H         17.39712       71.28780       68.78052
H         18.05530       69.93875       66.75823
H         16.68749       68.80652       67.05253
H         15.18803       70.84579       69.90850
H         14.95814       69.36891       68.89941
H         16.27438       69.47304       70.12977
H         17.76750       68.12797       69.23454
H         18.88219       67.92721       67.85412
H         19.07458       69.34772       68.94827
N         13.75730       72.61877       68.09961
C         13.01844       73.64167       68.83227
C         12.65642       73.11747       70.20246
O         12.94782       71.97239       70.51027
C         11.74608       74.07951       68.05587
C         12.07725       74.77148       66.73010
O         10.86986       72.99471       67.86201
H         13.24207       71.79672       67.75847
H         13.65746       74.53561       69.00552
H         11.19384       74.83479       68.65305
H         11.16688       72.48803       67.06333
H         12.64877       74.09208       66.06618
H         11.13363       75.06938       66.22315
H         12.67966       75.68423       66.91885
N         12.02997       73.91999       71.10030
C         11.63086       73.45958       72.42445
C         10.65801       72.29520       72.27535
O         10.86119       71.25915       72.89123
C         11.01252       74.62868       73.22659
C         10.74363       74.23298       74.68132
O         11.91226       75.70985       73.22466
H         11.82264       74.89282       70.82552
H         12.53874       73.12608       72.97847
H         10.05726       74.92730       72.73230
H         11.37139       76.54196       73.25804
H         11.69634       73.94733       75.17951
H         10.30910       75.09559       75.22913
H         10.03510       73.38202       74.74030
N          9.62210       72.38853       71.39183
C          8.66888       71.31616       71.11326
C          9.35815       70.01307       70.74060
O          9.09835       69.01176       71.39410
C          7.70800       71.76525       69.98071
C          6.75457       70.64962       69.52012
C          5.73010       71.16186       68.50164
C          4.86072       70.00532       67.98713
N          3.81606       70.48918       67.08612
H          9.52937       73.26804       70.85980
H          8.06069       71.12745       72.02601
H          8.29382       72.09875       69.09450
H          7.12189       72.63397       70.35337
H          6.21308       70.23340       70.39640
H          7.35246       69.83890       69.04750
H          6.24843       71.63522       67.63840
H          5.08818       71.92398       68.99505
H          4.38358       69.48325       68.84574
H          5.50511       69.27467       67.44736
H          4.24042       70.98041       66.26636
H          3.25789       69.67404       66.74314
H          3.17862       71.14074       67.59926
N         10.21042       69.93850       69.68288
C         10.80278       68.67995       69.22818
C         11.59631       68.03670       70.35086
O         11.25992       66.93006       70.75048
C         11.66133       68.90730       67.96257
C         10.78049       69.37198       66.78343
C         11.58306       69.72044       65.56717
O         11.34723       69.17663       64.50336
O         12.51879       70.68505       65.62260
H         10.42315       70.81082       69.17971
H          9.98455       67.97746       68.94787
H         12.16641       67.96054       67.67098
H         12.44372       69.66188       68.18651
H         10.20790       70.27880       67.05334
H         10.04919       68.56979       66.53652
N         12.62828       68.68943       70.94493
C         13.33385       68.14242       72.08265
H         14.11635       68.85453       72.42067
H         12.62218       67.98149       72.92204
H         13.81204       67.17854       71.81157
H         12.90306       69.61429       70.59987
Ca        13.38773       71.00725       62.70421
O         12.09105       73.55122       63.53990
H         11.23339       73.50072       64.03198
H         12.27445       74.52033       63.45320

Ca 1.0



