%chk=holoCaM.loop1.water2.frame164.chk
%nprocshared=20
%mem=10GB
%nosave
#b3lyp/svp scf=(tight,noincore,xqc) Test 
#IOP(5/87=12) Density=Current Pop=(MK,readradii) iop(6/33=2) iop(6/42=6)

holoCaM.loop1.water2.frame164 

   0  1 
C         98.75780       61.62882       82.51410
C         99.61981       60.51901       83.03423
O         99.73712       59.49186       82.38072
H         97.93926       61.82765       83.23828
H         99.36465       62.54906       82.38909
H         98.30913       61.35488       81.53582
N        100.25445       60.66071       84.22987
C        101.07682       59.61230       84.82006
C        100.21839       58.37927       85.07556
O         99.22819       58.47845       85.78672
C        101.72276       60.13015       86.11887
C        102.60863       59.10546       86.75819
O        103.57565       58.65868       86.16168
O        102.33706       58.68471       88.00534
H        100.13826       61.55226       84.73787
H        101.90224       59.37032       84.11233
H        100.92885       60.42724       86.83869
H        102.33803       61.02850       85.89055
N        100.53869       57.19038       84.48876
C         99.71657       55.98176       84.56887
C        100.41263       54.82795       85.29097
O         99.77591       53.80111       85.48278
C         99.29755       55.56947       83.13180
C        100.47161       55.03106       82.28125
C        100.09656       54.84738       80.80687
C        101.27389       54.24808       80.01520
N        100.98483       54.21568       78.58262
H        101.39330       57.16268       83.92585
H         98.79186       56.20956       85.14204
H         98.85224       56.46377       82.64186
H         98.51556       54.78064       83.17526
H        100.81755       54.06501       82.70898
H        101.31409       55.74008       82.29838
H         99.84002       55.84651       80.38912
H         99.21438       54.17951       80.70852
H        101.48136       53.21860       80.38132
H        102.19514       54.84381       80.17364
H        101.80444       53.80735       78.07712
H        100.13921       53.63054       78.39643
H        100.82765       55.18832       78.23049
N        101.71520       54.91023       85.69136
C        102.44719       53.82867       86.35584
C        103.02189       54.25246       87.71879
O        103.64701       53.42862       88.37113
C        103.52130       53.24654       85.40214
C        104.55620       54.21779       84.89966
O        105.45523       53.82098       84.17674
O        104.49633       55.51662       85.23359
H        102.22543       55.77592       85.49071
H        101.76101       52.97972       86.57081
H        103.00567       52.81942       84.51392
H        104.03889       52.41178       85.92344
N        102.77362       55.48451       88.24968
C        103.11096       55.88423       89.61044
C        104.57415       56.16203       89.89529
O        105.07922       55.67764       90.89765
H        102.20091       56.15088       87.71684
H        102.69284       55.15301       90.33642
H        102.59736       56.84878       89.80759
N        105.28244       57.02480       89.11586
C        106.58150       57.59952       89.48608
C        106.54944       59.13165       89.41405
O        107.58914       59.74538       89.61210
C        107.73447       56.98414       88.66361
C        107.43065       56.84977       87.21100
O        107.11137       57.90665       86.44846
O        107.38384       55.73130       86.72179
H        104.85194       57.34082       88.23348
H        106.83938       57.36453       90.54278
H        107.90262       55.95501       89.05353
H        108.67844       57.54839       88.82191
N        105.38625       59.82452       89.22106
C        105.29820       61.27559       89.25648
C        105.87842       61.98530       88.05213
O        105.80672       63.20720       88.04564
H        104.49518       59.32159       89.14450
H        105.77246       61.64948       90.18978
H        104.22335       61.56036       89.29127
N        106.43330       61.32776       86.99097
C        106.92939       62.02238       85.80267
C        106.16892       61.57622       84.56506
O        105.42552       60.60427       84.63010
C        108.45288       61.80958       85.63308
C        109.24752       62.38765       86.81593
O        108.75789       60.44985       85.43816
H        106.48755       60.30124       87.00594
H        106.74993       63.11566       85.89954
H        108.79076       62.35984       84.72853
H        108.72456       59.99387       86.31918
H        108.97094       61.88409       87.76700
H        110.33545       62.24430       86.64497
H        109.04577       63.47504       86.91758
N        106.26298       62.29470       83.40766
C        105.52702       61.96363       82.19181
C        106.50308       61.82417       81.03229
O        107.08180       62.81097       80.59743
C        104.41855       63.03449       81.93366
C        103.34942       62.93326       83.05958
C        103.76383       62.86802       80.54866
C        102.22850       63.96934       82.97198
H        106.84656       63.14650       83.40075
H        105.00747       60.98746       82.31151
H        104.89019       64.04227       81.95285
H        103.84013       63.07057       84.04588
H        102.88752       61.92015       83.04341
H        103.24839       61.89512       80.47760
H        103.03113       63.67483       80.35012
H        104.51625       62.94790       79.73940
H        101.62727       63.84387       82.04923
H        101.53900       63.83196       83.83201
H        102.64879       64.99558       83.00934
N        106.72593       60.59627       80.48765
C        107.55655       60.34741       79.31286
C        106.81001       60.76287       78.05081
O        105.68430       61.23108       78.14134
C        107.90898       58.83035       79.21530
C        108.72857       58.33996       80.42082
O        106.75304       58.04745       79.02220
H        106.27749       59.79315       80.93845
H        108.51475       60.90515       79.40331
H        108.56373       58.66134       78.33567
H        106.39014       57.78442       79.90542
H        109.67037       58.92125       80.50656
H        108.15523       58.44665       81.36418
H        108.98589       57.26757       80.28607
N        107.36049       60.55657       76.82173
C        106.59905       60.69775       75.58240
C        105.47343       59.66962       75.53883
O        104.38879       60.00456       75.08599
C        107.49480       60.53372       74.33342
C        108.54484       61.64769       74.24788
O        108.12260       59.27699       74.34178
H        108.33259       60.21979       76.76759
H        106.15973       61.71996       75.52231
H        106.83241       60.62210       73.43838
H        108.34801       59.06221       73.39899
H        109.13782       61.53494       73.31633
H        108.04602       62.64073       74.22430
H        109.23792       61.61639       75.11363
N        105.66282       58.39360       75.99520
C        104.60580       57.37884       75.98494
C        103.43272       57.72753       76.90774
O        102.42818       57.03170       76.84976
C        105.14925       55.98930       76.40925
C        106.34227       55.46142       75.58288
C        106.10077       55.35512       74.06875
C        104.96118       54.39398       73.70096
N        104.82589       54.28664       72.24863
H        106.59521       58.14147       76.35002
H        104.21860       57.30753       74.94565
H        104.32469       55.24606       76.35501
H        105.47387       56.03692       77.47243
H        106.61759       54.45791       75.97542
H        107.22353       56.11660       75.73869
H        107.04035       54.98134       73.60615
H        105.89750       56.36232       73.64743
H        104.00133       54.75977       74.12462
H        105.17425       53.38711       74.12399
H        104.60963       55.22407       71.83790
H        105.71028       53.91506       71.83138
H        104.04433       53.62964       72.02406
N        103.49323       58.76146       77.79700
C        102.41808       59.13433       78.71250
C        101.90133       60.54372       78.43313
O        100.95939       60.95024       79.09950
C        102.94459       59.05354       80.16377
C        103.37081       57.63232       80.53935
C        103.98494       57.57131       81.90925
O        104.97647       58.22696       82.17277
O        103.48004       56.75222       82.84305
H        104.35790       59.30243       77.86420
H        101.54973       58.44818       78.59970
H        102.16151       59.38916       80.87940
H        103.82301       59.72675       80.25640
H        104.11890       57.25453       79.81428
H        102.47712       56.98375       80.49877
N        102.45255       61.34687       77.47532
C        101.98772       62.68517       77.17545
H        101.12268       62.98668       77.80059
H        102.81584       63.40555       77.34442
H        101.68680       62.73497       76.10743
H        103.24791       61.02031       76.92147
Ca       106.00732       57.08129       84.70779
O        108.88531       57.84588       83.91261
H        109.26762       57.66502       84.80740
H        109.56699       57.50683       83.28053
O        107.11294       55.73275       82.00070
H        107.62863       55.23588       82.68455
H        106.17551       55.44606       82.13813

Ca 1.0



