%chk=holoCaM.loop2.water2.frame451.chk
%nprocshared=20
%mem=10GB
%nosave
#b3lyp/svp scf=(tight,noincore,xqc) Test 
#IOP(5/87=12) Density=Current Pop=(MK,readradii) iop(6/33=2) iop(6/42=6)

holoCaM.loop2.water2.frame451 

   -2  1 
C         19.41020       90.60499       54.83995
C         19.68887       92.07125       54.71586
O         20.11860       92.50621       53.65668
H         18.32635       90.45565       55.02801
H         19.68527       90.07318       53.90372
H         19.99276       90.17705       55.68173
N         19.47176       92.89860       55.77692
C         19.66480       94.33913       55.71393
C         20.85733       94.74151       56.57211
O         20.82691       94.58492       57.78447
C         18.35381       95.03145       56.11448
C         18.47810       96.51955       56.10471
O         18.17805       97.21196       57.20971
O         18.84756       97.10853       55.10477
H         19.15292       92.48729       56.66846
H         19.88178       94.64426       54.66673
H         18.03989       94.69977       57.12968
H         17.55838       94.73606       55.39551
N         21.98058       95.21445       55.95794
C         23.23830       95.51619       56.63613
C         23.21192       96.75410       57.52752
O         24.14447       96.91561       58.30227
C         24.33921       95.72303       55.58155
H         21.97059       95.24927       54.93089
H         23.50769       94.62888       57.24906
H         25.32743       95.88696       56.05848
H         24.41066       94.83218       54.92097
H         24.10154       96.60607       54.94639
N         22.26011       97.72110       57.40193
C         22.28174       98.98635       58.14654
C         20.99336       99.23353       58.92958
O         20.87311      100.29168       59.53245
C         22.63622      100.15085       57.19052
C         21.91652      100.08968       55.87520
O         20.57690      100.08504       55.80645
O         22.56286       99.97191       54.84642
H         21.52226       97.59605       56.69276
H         23.08448       98.99357       58.91736
H         23.72412      100.07720       56.96357
H         22.47960      101.13143       57.69025
N         20.03256       98.27622       59.05452
C         18.86619       98.41213       59.91704
C         17.78652       99.37943       59.45398
O         16.79108       99.46781       60.15959
H         20.18233       97.35702       58.61762
H         19.20295       98.68881       60.94003
H         18.37764       97.41607       59.98998
N         17.86651      100.12472       58.30997
C         16.79295      101.04210       57.90429
C         15.50827      100.33668       57.42758
O         14.55492      101.03135       57.10453
C         17.29650      102.06539       56.85930
C         17.67731      101.50594       55.51576
N         18.12095      102.34180       54.54832
O         17.58674      100.31044       55.29046
H         18.72525      100.08263       57.74466
H         16.53126      101.66234       58.79098
H         18.18024      102.59199       57.28212
H         16.49994      102.82353       56.69505
H         18.20026      103.35402       54.72594
H         18.38541      101.98369       53.62022
N         15.39088       98.97678       57.39020
C         14.15632       98.26998       57.07501
C         13.91590       98.00558       55.60234
O         12.97622       97.27635       55.31365
H         16.16522       98.39701       57.72333
H         13.28424       98.76328       57.55445
H         14.24086       97.25898       57.53101
N         14.71081       98.50853       54.61751
C         14.57376       98.13258       53.20926
C         15.87258       97.53797       52.70967
O         16.87908       97.64687       53.39651
C         14.19220       99.36320       52.34948
C         12.78662       99.86095       52.69594
O         15.12876      100.39175       52.55211
H         15.46635       99.15826       54.86987
H         13.79417       97.34956       53.08259
H         14.19423       99.06458       51.27531
H         14.93707      101.10088       51.88394
H         12.52432      100.72673       52.05103
H         12.04535       99.05464       52.51144
H         12.73008      100.17702       53.75815
N         15.93490       96.91669       51.49814
C         17.19672       96.49962       50.90087
C         17.44817       97.30995       49.64655
O         16.53513       97.91204       49.09370
C         17.31078       94.95834       50.66130
C         16.16112       94.39729       49.78512
C         17.41916       94.22082       52.00905
C         16.35616       92.92737       49.39519
H         15.06738       96.80257       50.94973
H         18.03446       96.77265       51.57814
H         18.26751       94.77576       50.12502
H         16.11259       94.97885       48.84025
H         15.18903       94.49815       50.31281
H         18.27430       94.62361       52.59293
H         16.48995       94.33663       52.60396
H         17.62613       93.14059       51.86439
H         15.53146       92.60205       48.72644
H         17.31350       92.80743       48.85489
H         16.35378       92.25550       50.27683
N         18.71740       97.40800       49.18617
C         19.14491       98.16271       48.02456
C         19.70719       97.15036       47.03299
O         19.63599       95.96209       47.31717
C         20.18499       99.20719       48.51425
C         20.49966      100.35399       47.58652
O         21.42552      101.25772       47.95963
O         19.87813      100.53472       46.55252
H         19.45115       96.90892       49.69682
H         18.28046       98.69385       47.56923
H         21.11834       98.67777       48.80339
H         19.78964       99.69803       49.42744
N         20.25187       97.50406       45.84490
C         20.73768       96.52155       44.88747
C         21.85383       95.63784       45.46935
O         21.68216       94.42976       45.40864
C         21.09587       97.22289       43.56012
C         21.55858       96.27873       42.48220
C         20.74743       95.21135       42.05585
C         22.80761       96.47855       41.87206
C         21.18578       94.35759       41.04035
C         23.23755       95.62780       40.85185
C         22.42846       94.56719       40.43698
H         20.29389       98.49412       45.58463
H         19.88503       95.84845       44.64260
H         21.84997       98.01285       43.71841
H         20.18134       97.73796       43.19177
H         19.77743       95.03739       42.50343
H         23.44484       97.29928       42.17826
H         20.55900       93.53641       40.71792
H         24.19733       95.79465       40.38140
H         22.76335       93.91000       39.64590
N         22.99835       96.11487       46.06159
C         24.04573       95.25590       46.61863
C         23.53458       94.27183       47.65671
O         23.82899       93.08774       47.56900
C         25.00854       96.24207       47.29972
C         24.84629       97.47540       46.44925
C         23.33592       97.51084       46.24110
H         24.55792       94.73135       45.78114
H         24.63250       96.52629       48.30883
H         26.04607       95.86160       47.41637
H         25.27641       98.40411       46.87975
H         25.32969       97.27212       45.46637
H         22.80112       97.89159       47.13928
H         23.13734       98.15326       45.37093
N         22.75521       94.72269       48.67790
C         22.24119       93.89703       49.76906
C         21.41485       92.74312       49.21578
O         21.55221       91.63104       49.70478
C         21.41922       94.76954       50.75209
C         22.27620       95.89852       51.38614
C         21.47957       96.86305       52.22184
O         20.57684       97.51083       51.72348
O         21.82077       97.10024       53.49862
H         22.49709       95.71949       48.65401
H         23.09080       93.47158       50.34843
H         20.99732       94.14075       51.56588
H         20.57909       95.19750       50.18576
H         22.76046       96.51731       50.60731
H         23.08093       95.44297       52.00262
N         20.62044       92.92100       48.12234
C         19.90300       91.85542       47.45255
H         18.83038       92.11509       47.37638
H         20.29846       91.74753       46.41990
H         20.00368       90.88139       47.97320
H         20.56344       93.85038       47.69801
Ca        19.75831       99.57726       53.76345
O         21.25221      101.62315       52.20887
H         21.89305      100.90953       52.45355
H         20.90347      101.34523       51.32521
O         18.12323      100.26210       51.27667
H         17.66117      100.18859       52.14759
H         18.15354      101.23394       51.09037

Ca 1.0



