%chk=holoCaM-CaMKII.loop1.water1.frame179.chk
%nprocshared=20
%mem=10GB
%nosave
#b3lyp/svp scf=(tight,noincore,xqc) Test 
#IOP(5/87=12) Density=Current Pop=(MK,readradii) iop(6/33=2) iop(6/42=6)

holoCaM-CaMKII.loop1.water1.frame179 

   0  1 
C        113.30113       70.23227       10.74890
C        114.12935       71.36374       10.22166
O        114.98423       71.85870       10.94011
H        112.22586       70.50506       10.70542
H        113.47714       69.32921       10.12807
H        113.56962       70.00212       11.80236
N        113.91568       71.82675        8.95777
C        114.68603       72.89852        8.33599
C        114.02711       74.25655        8.58867
O        113.67240       74.95273        7.64748
C        114.83592       72.57773        6.83144
C        115.64819       73.60243        6.10498
O        116.93040       73.80777        6.44353
O        115.14264       74.25743        5.20847
H        113.18233       71.36670        8.39628
H        115.70825       72.92694        8.77045
H        113.82473       72.52030        6.37199
H        115.33019       71.59244        6.70264
N        113.83152       74.69963        9.85965
C        113.26746       76.00708       10.17842
C        114.23731       77.12314        9.85112
O        113.81053       78.07953        9.21694
C        112.78340       76.04104       11.64822
C        111.46066       75.24621       11.79950
C        110.26209       76.04702       11.23145
C        108.95636       75.24846       11.21134
N        107.85926       76.08405       10.71513
H        114.08762       74.08246       10.64073
H        112.38658       76.18582        9.53895
H        112.58976       77.08079       11.99143
H        113.58165       75.62185       12.29963
H        111.25441       75.06686       12.87644
H        111.56203       74.25577       11.30216
H        110.43282       76.37310       10.18979
H        110.13042       76.96014       11.85255
H        108.71144       74.88355       12.23161
H        109.08020       74.37027       10.53798
H        108.07840       76.44539        9.75737
H        106.98293       75.51694       10.66630
H        107.70500       76.89173       11.36203
N        115.55874       77.06834       10.19245
C        116.49620       78.13459        9.82146
C        116.57615       78.40011        8.29582
O        117.14397       79.41637        7.92164
C        117.89413       77.91553       10.44856
C        118.58885       76.65970       10.00461
O        119.75447       76.47168       10.31415
O        117.94974       75.75000        9.25125
H        115.89595       76.25503       10.73009
H        116.10132       79.07202       10.27415
H        117.81751       77.89691       11.55738
H        118.52943       78.78434       10.16852
N        115.95383       77.60025        7.37603
C        115.71690       77.97612        5.98404
C        116.92856       78.01585        5.07709
O        117.18615       79.05138        4.48025
H        115.50096       76.73423        7.68915
H        115.19251       78.95751        5.96633
H        115.02193       77.23196        5.53817
N        117.68178       76.90033        4.87786
C        118.81192       76.82294        3.94384
C        118.83086       75.52417        3.12076
O        119.77058       75.33948        2.36018
C        120.12866       77.05527        4.71224
C        120.18078       76.28687        5.99287
O        120.17466       76.90058        7.04901
O        120.11394       74.94666        6.02077
H        117.47434       76.08178        5.46662
H        118.76130       77.64348        3.19372
H        120.15656       78.13512        4.98303
H        121.01464       76.85272        4.07504
N        117.82497       74.60337        3.17474
C        117.79927       73.37369        2.39275
C        118.91314       72.42925        2.77980
O        119.63934       71.98384        1.90853
H        117.00926       74.78099        3.76648
H        117.83546       73.60758        1.30593
H        116.83891       72.84934        2.59317
N        119.05815       72.05767        4.08006
C        120.06138       71.13820        4.63168
C        119.74396       70.92359        6.10480
O        119.63167       71.89025        6.84495
C        121.54089       71.62129        4.52405
C        122.24552       71.32637        3.19614
O        121.65414       72.98647        4.82439
H        118.36522       72.45350        4.73423
H        119.98792       70.14847        4.12927
H        122.13955       71.00814        5.24372
H        121.90184       73.05686        5.78119
H        123.32336       71.57695        3.29301
H        122.17065       70.24172        2.96040
H        121.86979       71.92191        2.35195
N        119.61752       69.66557        6.60109
C        119.26464       69.36402        7.98192
C        120.50996       68.85951        8.68025
O        121.13090       67.92090        8.19589
C        118.08569       68.34939        7.99342
C        116.85174       68.99006        7.30008
C        117.74754       67.90651        9.42995
C        115.67942       68.03163        7.09401
H        119.80391       68.86699        5.97323
H        118.92519       70.27993        8.51781
H        118.39699       67.44787        7.41879
H        117.13858       69.34728        6.28763
H        116.50866       69.86811        7.88961
H        117.42387       68.77387       10.04362
H        116.94638       67.14058        9.43164
H        118.62952       67.43571        9.91213
H        115.26734       67.67312        8.05744
H        114.86568       68.56408        6.55664
H        115.99956       67.16468        6.47774
N        120.94163       69.46058        9.82707
C        122.18962       69.12317       10.49802
C        121.92600       68.42661       11.81768
O        120.77516       68.22145       12.18410
C        123.04747       70.40270       10.70386
C        123.39400       71.08465        9.36778
O        122.41476       71.28488       11.60483
H        120.36027       70.20091       10.24881
H        122.77805       68.40793        9.88165
H        124.02187       70.12744       11.15668
H        121.99714       72.03044       11.10319
H        123.94825       70.38132        8.71224
H        122.47515       71.41985        8.84082
H        124.03688       71.97049        9.55851
N        122.97258       68.00496       12.57473
C        122.83794       67.29943       13.84284
C        122.10130       68.16260       14.85552
O        121.11862       67.71364       15.42573
C        124.24382       66.91277       14.37446
C        124.17213       66.04623       15.63341
O        124.93006       66.18832       13.38242
H        123.92464       68.18230       12.21696
H        122.27202       66.35579       13.66981
H        124.79915       67.85169       14.61833
H        125.85527       66.54739       13.33758
H        125.20076       65.79719       15.97095
H        123.65263       66.57773       16.45699
H        123.63434       65.09898       15.41304
N        122.54044       69.42586       15.11704
C        121.94693       70.30925       16.11942
C        120.46537       70.55364       15.87166
O        119.73710       70.76088       16.83340
C        122.75408       71.62690       16.15339
C        122.36550       72.59394       17.28240
C        123.24745       73.86222       17.29747
C        124.76216       73.61675       17.47964
N        125.07161       72.92430       18.73167
H        123.35478       69.76695       14.58341
H        122.05271       69.80948       17.10799
H        122.66568       72.14512       15.17262
H        123.81315       71.33409       16.30447
H        122.43728       72.07645       18.26175
H        121.31094       72.91585       17.14644
H        122.89644       74.52117       18.12089
H        123.10213       74.41129       16.34140
H        125.27623       74.60327       17.47708
H        125.17555       73.04274       16.62327
H        126.10958       72.83538       18.82258
H        124.70612       73.46974       19.54530
H        124.66418       71.96237       18.73211
N        119.94661       70.55144       14.61275
C        118.52611       70.75075       14.34365
C        117.73265       69.55155       14.83096
O        116.84908       69.72082       15.65975
C        118.28383       71.01791       12.84261
C        118.99749       72.31582       12.41679
C        118.76173       72.64317       10.97602
O        119.70053       72.72041       10.20199
O        117.51820       72.89501       10.53663
H        120.58842       70.41196       13.81852
H        118.17323       71.66208       14.87882
H        117.19108       71.13914       12.67027
H        118.64200       70.16230       12.22884
H        120.08810       72.22009       12.58816
H        118.62982       73.16566       13.03106
N        118.01178       68.29941       14.37395
C        117.30043       67.12719       14.83768
H        116.22336       67.20546       14.57955
H        117.71732       66.21647       14.35605
H        117.41317       67.02417       15.93828
H        118.76676       68.16693       13.68834
Ca       119.14597       74.39742        7.94965
O        122.09353       74.27144        8.63181
H        122.63704       74.20327        7.80747
H        122.74902       74.19028        9.36884

Ca 1.0



