%chk=holoCaM-CaMKII.loop1.water2.frame483.chk
%nprocshared=20
%mem=10GB
%nosave
#b3lyp/svp scf=(tight,noincore,xqc) Test 
#IOP(5/87=12) Density=Current Pop=(MK,readradii) iop(6/33=2) iop(6/42=6)

holoCaM-CaMKII.loop1.water2.frame483 

   0  1 
C         78.96207       86.08509       69.40638
C         79.54014       87.43017       69.09627
O         79.02293       88.10989       68.22645
H         78.08259       85.87840       68.75960
H         79.72922       85.30218       69.23745
H         78.63612       86.06164       70.46804
N         80.60155       87.89457       69.80933
C         81.18166       89.21994       69.61924
C         81.93386       89.28932       68.28575
O         83.09959       88.92065       68.23534
C         82.09186       89.52895       70.83050
C         82.56787       90.94494       70.91072
O         83.32911       91.30924       71.95512
O         82.24452       91.77548       70.07813
H         80.96316       87.29481       70.56833
H         80.35392       89.96442       69.64465
H         82.96578       88.84111       70.83657
H         81.51036       89.34877       71.76168
N         81.28454       89.65050       67.13972
C         81.89236       89.56731       65.80855
C         82.90269       90.67244       65.52462
O         83.58231       90.59332       64.51030
C         80.80962       89.62044       64.70108
C         79.66544       88.59962       64.85601
C         80.15683       87.15159       64.96272
C         78.97617       86.18401       65.09308
N         79.44764       84.80603       65.21690
H         80.29269       89.89541       67.21288
H         82.41604       88.58980       65.73716
H         81.30115       89.45196       63.71757
H         80.34930       90.63399       64.68471
H         78.99566       88.70209       63.97489
H         79.05645       88.84148       65.74955
H         80.79330       87.03616       65.86570
H         80.75420       86.89643       64.06090
H         78.32261       86.27321       64.19747
H         78.37659       86.44630       65.99381
H         80.00894       84.54194       64.37480
H         80.03319       84.70365       66.07793
H         78.62306       84.16796       65.29051
N         83.01194       91.75672       66.33754
C         83.92899       92.87371       66.10543
C         84.93005       93.03861       67.25093
O         85.79986       93.89160       67.14057
C         83.15895       94.19247       65.80343
C         82.15528       94.63902       66.83834
O         81.63865       95.74046       66.74476
O         81.79001       93.81597       67.83391
H         82.40076       91.78464       67.15676
H         84.54828       92.67613       65.20285
H         82.61668       94.09541       64.83809
H         83.91400       94.99948       65.67515
N         84.91332       92.23053       68.35054
C         85.92391       92.26160       69.39415
C         85.99485       93.57187       70.14668
O         87.06711       94.15630       70.20498
H         84.19462       91.50263       68.44169
H         86.91411       92.02348       68.94707
H         85.69154       91.46245       70.13187
N         84.90034       94.06749       70.78877
C         84.92566       95.24802       71.65604
C         84.46975       94.89519       73.07000
O         84.12178       95.78918       73.82914
C         84.12310       96.40762       71.02493
C         82.66341       96.15836       70.79108
O         82.02198       96.96233       70.13407
O         82.06777       95.03041       71.20168
H         84.01073       93.56194       70.68324
H         85.95941       95.64671       71.74892
H         84.58500       96.60731       70.03240
H         84.22840       97.32675       71.63896
N         84.53370       93.60750       73.51948
C         84.18843       93.19118       74.86720
C         82.70457       93.16681       75.18091
O         82.38605       92.75874       76.28768
H         84.93348       92.88370       72.90763
H         84.73163       93.82207       75.60387
H         84.53854       92.14409       75.00109
N         81.74020       93.56676       74.29662
C         80.31084       93.49445       74.60921
C         79.53221       92.75262       73.52992
O         80.04215       92.51608       72.44566
C         79.71691       94.90895       74.82521
C         80.34208       95.62495       76.03034
O         79.83236       95.69572       73.66814
H         82.01767       93.94381       73.38549
H         80.16126       92.92580       75.55204
H         78.63320       94.80761       75.05306
H         80.79251       95.90281       73.52773
H         81.43136       95.78046       75.88175
H         79.85899       96.61514       76.17219
H         80.18640       95.02394       76.95153
N         78.26241       92.33647       73.80781
C         77.37834       91.64897       72.87113
C         76.08224       92.44508       72.79345
O         75.51141       92.76100       73.82708
C         77.13203       90.18068       73.33372
C         78.47892       89.40400       73.33285
C         76.11015       89.48363       72.40654
C         78.37755       87.96974       73.85657
H         77.90059       92.49949       74.75944
H         77.83321       91.58443       71.85969
H         76.71593       90.19387       74.36528
H         79.20618       89.93096       73.98558
H         78.89809       89.37737       72.30180
H         76.49209       89.43733       71.36440
H         75.88315       88.45558       72.75050
H         75.14144       90.02166       72.40850
H         79.38811       87.50898       73.85874
H         77.98311       87.96753       74.89432
H         77.73233       87.34004       73.21191
N         75.53726       92.75617       71.58471
C         74.30603       93.51964       71.41950
C         73.16621       92.58976       71.05997
O         73.36809       91.39371       70.95211
C         74.49169       94.60583       70.32221
C         75.60661       95.59728       70.67315
O         74.70439       94.01500       69.06000
H         75.97811       92.38163       70.74148
H         74.02515       94.01596       72.37363
H         73.56659       95.21240       70.23778
H         75.67871       93.92401       68.90229
H         76.57132       95.06041       70.77218
H         75.69892       96.35590       69.86598
H         75.37708       96.11363       71.62766
N         71.91901       93.09253       70.86544
C         70.77555       92.28569       70.45165
C         71.07183       91.61990       69.11546
O         70.93849       90.40772       69.01542
C         69.50991       93.18778       70.38920
C         68.29445       92.46904       69.79960
O         69.16568       93.60751       71.68756
H         71.78929       94.10573       70.99184
H         70.57605       91.49053       71.20554
H         69.69835       94.07338       69.73804
H         69.79485       94.32430       71.95678
H         68.48441       92.17373       68.74626
H         68.04512       91.56721       70.39661
H         67.42143       93.15683       69.80441
N         71.48969       92.35611       68.05016
C         71.74401       91.79267       66.72620
C         72.79006       90.68383       66.76901
O         72.52150       89.60519       66.25948
C         72.14301       92.92122       65.75111
C         72.17090       92.43987       64.28967
C         72.44533       93.56759       63.27610
C         71.42288       94.72566       63.28098
N         70.05391       94.27214       63.02440
H         71.61626       93.37144       68.18884
H         70.78734       91.36623       66.34781
H         73.12249       93.36458       66.03773
H         71.36358       93.70588       65.83845
H         71.19954       91.96327       64.03922
H         72.96068       91.66682       64.17306
H         72.45531       93.11579       62.26011
H         73.45433       93.99172       63.46844
H         71.71821       95.44691       62.48713
H         71.45745       95.27602       64.24510
H         70.00758       93.74562       62.12231
H         69.71157       93.67199       63.80825
H         69.42638       95.10634       62.96143
N         73.98585       90.86842       67.39782
C         75.02403       89.83733       67.49725
C         74.46545       88.54477       68.07881
O         74.61938       87.50929       67.44562
C         76.22702       90.35001       68.32882
C         76.98407       91.46802       67.57997
C         78.15972       92.01738       68.34464
O         79.27931       91.96212       67.86779
O         77.98640       92.64011       69.52121
H         74.14356       91.77676       67.85643
H         75.40615       89.59472       66.48026
H         76.93793       89.51599       68.50011
H         75.86581       90.69246       69.31824
H         76.30509       92.31110       67.35126
H         77.34934       91.05290       66.61491
N         73.76694       88.53381       69.24619
C         73.16756       87.34113       69.81374
H         72.06402       87.46654       69.84947
H         73.39221       86.42829       69.22269
H         73.54395       87.19242       70.84678
H         73.61588       89.41624       69.74119
Ca        80.64463       94.29178       69.68299
O         78.86677       96.19154       71.08019
H         79.14582       97.00686       71.56511
H         78.37948       96.53549       70.29215
O         78.53996       95.57410       67.79134
H         79.34973       96.08362       68.04565
H         77.85921       96.27108       67.61746

Ca 1.0



