%chk=holoCaM-CaMKII.loop3.water2.frame475.chk
%nprocshared=20
%mem=10GB
%nosave
#b3lyp/svp scf=(tight,noincore,xqc) Test 
#IOP(5/87=12) Density=Current Pop=(MK,readradii) iop(6/33=2) iop(6/42=6)

holoCaM-CaMKII.loop3.water2.frame475 

   0  1 
C         88.18338       58.63880       50.69928
C         88.53622       58.03566       49.37296
O         89.55164       58.41523       48.80660
H         87.25190       58.19685       51.11108
H         89.00890       58.44435       51.41706
H         88.04475       59.73365       50.58962
N         87.76221       57.05440       48.82906
C         88.12586       56.37457       47.59336
C         88.05476       57.34597       46.41996
O         86.97825       57.84134       46.11606
C         87.22839       55.13283       47.40225
C         87.73715       54.18736       46.36031
O         87.12786       53.16190       46.13484
O         88.83835       54.46988       45.65511
H         86.92968       56.73756       49.35060
H         89.16604       56.00837       47.72474
H         86.18839       55.44546       47.15982
H         87.20538       54.55604       48.35070
N         89.19450       57.72968       45.77735
C         89.23104       58.81183       44.79553
C         88.59986       58.42101       43.46070
O         87.86571       59.22835       42.90993
C         90.67429       59.35409       44.66673
C         90.74039       60.75416       44.02488
C         92.14324       61.36449       44.19008
C         92.19373       62.81839       43.69570
N         93.51308       63.40610       43.93456
H         90.08933       57.33059       46.10156
H         88.65935       59.66371       45.22956
H         91.33721       58.63455       44.14269
H         91.05311       59.48067       45.70659
H         90.02622       61.42026       44.55900
H         90.44946       60.71024       42.95355
H         92.89028       60.74972       43.64347
H         92.40771       61.36570       45.27131
H         91.43164       63.42128       44.23969
H         91.95970       62.85577       42.60932
H         94.24727       62.86931       43.41884
H         93.51557       64.39631       43.59822
H         93.72882       63.40194       44.95864
N         88.80316       57.18673       42.90639
C         88.19748       56.73787       41.64984
C         87.14312       55.64295       41.85788
O         86.57935       55.19187       40.87008
C         89.28957       56.33490       40.62220
C         90.07566       55.08189       40.90789
O         89.79868       54.30552       41.96175
O         90.96042       54.73987       40.14054
H         89.38781       56.52633       43.41627
H         87.65564       57.58702       41.18089
H         90.00230       57.18194       40.52665
H         88.80592       56.18288       39.63304
N         86.76028       55.22480       43.10411
C         85.64574       54.31009       43.33315
C         85.89426       52.85180       42.97810
O         84.95086       52.08069       43.08528
H         87.18479       55.65661       43.93514
H         84.76382       54.68469       42.76696
H         85.37233       54.33534       44.40933
N         87.10382       52.38406       42.55410
C         87.31144       50.99865       42.12567
C         87.18222       49.94690       43.22920
O         87.20628       48.77183       42.88885
C         88.67551       50.83143       41.41407
C         89.90046       51.02435       42.28111
N         91.12667       50.82889       41.74564
O         89.80024       51.34365       43.45633
H         87.87708       53.04733       42.46303
H         86.53157       50.78138       41.36190
H         88.72915       51.54588       40.56459
H         88.72195       49.80338       40.99355
H         91.22975       50.55045       40.75914
H         91.97510       50.94151       42.31673
N         87.06806       50.26610       44.55096
C         86.92753       49.26489       45.60035
C         88.03814       49.27627       46.63580
O         87.96871       48.43585       47.52209
H         87.06068       51.24966       44.82647
H         86.89510       48.24065       45.17332
H         85.96054       49.43507       46.12204
N         89.06716       50.17976       46.63853
C         90.08634       50.16936       47.69394
C         90.87961       51.47102       47.78234
O         90.69413       52.36046       46.96359
C         91.03119       48.94711       47.56434
C         91.94810       49.00031       46.36285
C         93.26355       49.47646       46.50849
C         91.52034       48.54838       45.10347
C         94.13343       49.50596       45.41640
C         92.39885       48.56632       44.01265
C         93.70832       49.04765       44.16657
O         94.56582       49.07289       43.12603
H         89.08241       50.91974       45.92527
H         89.55140       50.10201       48.66783
H         90.47736       47.98496       47.56826
H         91.66102       48.89982       48.47683
H         93.61634       49.83145       47.46824
H         90.51652       48.16549       44.96949
H         95.14062       49.88345       45.54394
H         92.06345       48.20329       43.04923
H         94.31874       48.75794       42.24509
N         91.77125       51.64911       48.80485
C         92.50554       52.88600       49.04255
C         93.99575       52.63335       48.90763
O         94.50962       51.71452       49.53139
C         92.20651       53.44418       50.46773
C         90.69764       53.51825       50.80737
C         92.87408       54.82311       50.66133
C         89.86454       54.39303       49.87628
H         91.91807       50.88220       49.47790
H         92.19851       53.66435       48.31216
H         92.64480       52.74986       51.21969
H         90.58762       53.90622       51.84398
H         90.27015       52.49296       50.79461
H         93.97268       54.74518       50.55339
H         92.50889       55.55718       49.91207
H         92.67178       55.21846       51.67834
H         89.88829       53.99598       48.84327
H         88.81042       54.38693       50.22311
H         90.22255       55.44155       49.88124
N         94.76223       53.48651       48.17545
C         96.21198       53.40397       48.08001
C         96.83558       54.57487       48.82202
O         96.11381       55.40176       49.35999
C         96.62483       53.38391       46.59652
O         96.21345       54.55687       45.94074
H         94.30746       54.29089       47.72740
H         96.58753       52.47494       48.56104
H         96.19758       52.48207       46.09820
H         97.72659       53.29870       46.49603
H         95.35817       54.35132       45.47943
N         98.18738       54.68999       48.92332
C         98.83647       55.80569       49.60442
C         98.55993       57.11917       48.89475
O         98.34479       58.11672       49.56770
C        100.34547       55.57782       49.69283
H         98.77536       53.95121       48.50795
H         98.47072       55.86398       50.65563
H        100.79894       55.51186       48.68240
H        100.81988       56.41227       50.25419
H        100.54615       54.63500       50.24631
N         98.55645       57.19616       47.53079
C         98.29995       58.44061       46.80581
C         96.89384       59.00056       47.01503
O         96.65263       60.11487       46.57104
C         98.51797       58.22796       45.30388
H         98.76681       56.34126       46.99281
H         99.03701       59.19405       47.16246
H         97.79118       57.48174       44.91406
H         98.38403       59.18182       44.75011
H         99.54793       57.85805       45.11735
N         95.91927       58.30195       47.66669
C         94.57218       58.81439       47.90348
C         94.31437       59.01278       49.39325
O         93.28415       59.57724       49.73510
C         93.53746       57.81590       47.36176
C         93.77633       57.41185       45.89769
C         92.85993       56.28601       45.53958
O         92.39152       56.13068       44.30103
O         92.69327       55.36399       46.31967
H         96.12512       57.35603       47.99904
H         94.44309       59.79798       47.40180
H         92.50375       58.21093       47.48573
H         93.63027       56.89814       47.98658
H         94.80975       57.02745       45.78664
H         93.64372       58.27056       45.20383
N         95.18418       58.55906       50.34166
C         94.97153       58.74649       51.75661
H         94.96724       59.83038       51.99327
H         94.01232       58.28122       52.06398
H         95.79822       58.26363       52.32310
H         96.02551       58.04231       50.07518
Ca        90.62283       54.80693       44.39233
O         93.88228       54.64110       42.67397
H         93.28623       55.02066       41.98035
H         94.38369       55.41894       43.02763
O         93.06460       52.33849       44.15631
H         93.94839       52.09204       43.78245
H         93.15751       52.20275       45.13165

Ca 1.0



