%chk=holoCaM-CaMKII.loop2.water1.frame443.chk
%nprocshared=20
%mem=10GB
%nosave
#b3lyp/svp scf=(tight,noincore,xqc) Test 
#IOP(5/87=12) Density=Current Pop=(MK,readradii) iop(6/33=2) iop(6/42=6)

holoCaM-CaMKII.loop2.water1.frame443 

   -2  1 
C         60.56174       67.27894        4.28816
C         60.79484       66.66473        2.93188
O         60.52824       67.31268        1.93435
H         59.49066       67.53594        4.41711
H         60.85788       66.58714        5.10629
H         61.17153       68.20281        4.38930
N         61.32229       65.41555        2.82770
C         61.69294       64.76964        1.56867
C         60.51581       64.48666        0.64189
O         59.53885       63.88975        1.07128
C         62.40131       63.43956        1.87687
C         62.81079       62.72736        0.62202
O         63.54376       63.27386       -0.18557
O         62.33681       61.49301        0.37037
H         61.53139       64.91661        3.70666
H         62.43348       65.41356        1.04616
H         61.72234       62.78109        2.46093
H         63.30629       63.64272        2.48775
N         60.61443       64.80548       -0.68487
C         59.61398       64.47664       -1.69423
C         60.17477       63.68147       -2.88817
O         59.37263       63.31944       -3.73839
C         59.01363       65.78613       -2.21606
H         61.45223       65.30323       -0.99702
H         58.79710       63.87743       -1.23754
H         58.57222       66.36143       -1.37508
H         59.80202       66.40831       -2.69491
H         58.21456       65.58691       -2.96144
N         61.51172       63.43395       -3.07473
C         62.05394       62.83110       -4.30324
C         62.99467       61.64299       -4.07597
O         63.43099       61.05884       -5.05908
C         62.77064       63.93014       -5.11684
C         63.83212       64.64149       -4.32284
O         63.74987       65.84328       -4.12676
O         64.86543       63.95679       -3.80852
H         62.18676       63.78197       -2.38321
H         61.22993       62.44525       -4.94236
H         62.01257       64.67631       -5.43988
H         63.22511       63.49475       -6.03332
N         63.36303       61.22910       -2.83504
C         64.25083       60.10581       -2.58309
C         65.63934       60.29119       -3.15811
O         66.08665       59.41201       -3.88169
H         62.98825       61.71363       -2.01719
H         63.79597       59.17110       -2.98144
H         64.36070       59.98228       -1.48400
N         66.39492       61.38800       -2.85104
C         67.79353       61.53330       -3.26629
C         68.73980       61.70168       -2.07289
O         69.94044       61.79399       -2.28810
C         67.96205       62.67988       -4.28723
C         67.79353       64.08563       -3.76995
N         68.02378       65.12053       -4.60970
O         67.48152       64.30331       -2.60834
H         65.96233       62.13403       -2.28650
H         68.11833       60.61443       -3.80082
H         67.25995       62.51919       -5.13459
H         68.99630       62.61937       -4.69008
H         68.29138       64.95399       -5.59025
H         67.96222       66.09041       -4.28326
N         68.27600       61.75092       -0.79007
C         69.11769       61.90634        0.38370
C         69.86794       63.21987        0.40821
O         71.06149       63.20099        0.65865
H         67.26974       61.65619       -0.60477
H         69.82193       61.04985        0.46658
H         68.45989       61.88844        1.28011
N         69.20468       64.39842        0.23360
C         69.79448       65.73778        0.34379
C         68.67078       66.76489        0.32382
O         67.96324       66.83180       -0.66729
C         70.78995       66.11986       -0.80072
C         72.11594       65.35806       -0.85014
O         70.17216       66.08138       -2.06183
H         68.19113       64.33205        0.07207
H         70.31921       65.81448        1.32147
H         71.08110       67.17625       -0.60222
H         69.96516       65.13097       -2.25454
H         71.97273       64.31270       -1.18318
H         72.78176       65.83679       -1.59879
H         72.61878       65.39338        0.13965
N         68.44750       67.60033        1.37783
C         67.36106       68.58354        1.39030
C         67.53314       69.56154        0.22815
O         68.51619       70.28765        0.18554
C         67.28464       69.29509        2.78371
C         66.85268       68.25898        3.86362
C         66.31182       70.49245        2.76886
C         66.87891       68.78762        5.29914
H         69.06928       67.52516        2.19676
H         66.39725       68.04526        1.24854
H         68.29466       69.69383        3.02830
H         67.53213       67.38246        3.84135
H         65.82621       67.89334        3.63698
H         66.30728       71.01822        3.74454
H         66.63648       71.25083        2.02901
H         65.28009       70.16434        2.52795
H         67.90242       69.12549        5.56480
H         66.16084       69.61804        5.44793
H         66.58533       67.97041        5.99244
N         66.58743       69.61245       -0.75830
C         66.60071       70.55385       -1.87240
C         66.01966       71.88760       -1.41717
O         65.62807       71.98883       -0.26771
C         65.78955       69.98881       -3.06904
C         66.45266       68.80516       -3.74421
O         66.51265       67.57068       -3.19653
O         66.92442       68.95989       -4.85950
H         65.75986       69.01567       -0.66455
H         67.64518       70.72617       -2.21522
H         65.73582       70.78970       -3.83632
H         64.74353       69.74219       -2.78108
N         65.95346       72.97198       -2.24588
C         65.41394       74.26008       -1.80953
C         63.92270       74.17755       -1.46230
O         63.59446       74.58428       -0.35824
C         65.67553       75.38285       -2.84051
C         65.20773       76.72503       -2.32063
C         65.86769       77.34168       -1.24219
C         64.10157       77.36799       -2.90395
C         65.43184       78.58100       -0.76260
C         63.66262       78.60193       -2.41345
C         64.32898       79.20951       -1.34619
H         66.33383       72.89222       -3.20129
H         65.97448       74.56511       -0.89605
H         65.17382       75.16442       -3.79367
H         66.76027       75.44954       -3.07190
H         66.72427       76.86839       -0.77894
H         63.56982       76.90879       -3.72797
H         65.94879       79.05428        0.06240
H         62.80474       79.08727       -2.86061
H         63.99039       80.16682       -0.97105
N         62.95536       73.68912       -2.31460
C         61.53348       73.60681       -1.97321
C         61.28914       73.00480       -0.60547
O         60.52490       73.54333        0.18273
C         60.96261       72.66291       -3.04847
C         61.80863       73.00952       -4.24342
C         63.19776       73.10029       -3.62067
H         61.07684       74.61791       -2.05645
H         61.20473       71.60133       -2.80938
H         59.86421       72.73749       -3.19637
H         61.73508       72.30865       -5.10266
H         61.50337       74.02620       -4.58139
H         63.65266       72.09727       -3.47580
H         63.81302       73.70190       -4.30525
N         61.94472       71.86633       -0.27601
C         61.79555       71.13396        0.97403
C         62.24455       71.99508        2.13961
O         61.48931       72.15737        3.08706
C         62.59173       69.81374        0.86756
C         62.00454       68.95756       -0.28275
C         62.82287       67.77041       -0.63800
O         62.59667       67.20833       -1.69683
O         63.91407       67.42754        0.05905
H         62.61411       71.51041       -0.97506
H         60.73026       70.84896        1.12497
H         62.54370       69.24085        1.81846
H         63.65916       70.05166        0.65553
H         61.98490       69.54213       -1.22104
H         60.95759       68.66071       -0.07972
N         63.44640       72.62802        2.10708
C         63.90436       73.51098        3.15517
H         64.88401       73.95362        2.86979
H         63.17744       74.33884        3.29799
H         64.02826       72.94616        4.10132
H         64.04295       72.51296        1.28674
Ca        65.40770       66.74796       -1.42538
O         65.90891       64.05582        0.84555
H         65.94539       63.06683        0.80947
H         65.60175       64.25978        1.76280

Ca 1.0



