%chk=holoCaM-CaMKII.loop4.water2.frame104.chk
%nprocshared=20
%mem=10GB
%nosave
#b3lyp/svp scf=(tight,noincore,xqc) Test 
#IOP(5/87=12) Density=Current Pop=(MK,readradii) iop(6/33=2) iop(6/42=6)

holoCaM-CaMKII.loop4.water2.frame104 

   -3  1 
C         44.88146       30.88615       47.98104
C         45.61004       31.47040       49.15059
O         45.33532       32.60178       49.52504
H         44.14257       31.61086       47.57821
H         45.60382       30.61577       47.18460
H         44.33796       29.97397       48.30990
N         46.53615       30.72540       49.81248
C         47.17520       31.19849       51.03391
C         48.12505       32.36803       50.75467
O         48.50666       32.56257       49.60874
C         47.92911       30.02596       51.69380
C         48.15464       30.19242       53.16159
O         48.74988       29.31805       53.76558
O         47.57113       31.19048       53.85313
H         46.71291       29.76307       49.48172
H         46.34153       31.51450       51.70142
H         48.88222       29.83663       51.15165
H         47.31159       29.10244       51.62220
N         48.52244       33.20411       51.75892
C         49.40828       34.35350       51.58588
C         50.65919       34.26003       52.47350
O         51.60295       34.97694       52.16833
C         48.57567       35.65404       51.85853
C         47.48095       35.87932       50.77769
C         49.40797       36.93198       52.06380
C         48.01949       36.28914       49.39963
H         48.12353       33.06739       52.68834
H         49.79910       34.37586       50.54776
H         48.05001       35.50434       52.82143
H         46.79919       36.68796       51.12038
H         46.86570       34.96127       50.66716
H         48.73211       37.79233       52.26127
H         50.05657       36.83071       52.95905
H         50.04392       37.15522       51.18470
H         47.17167       36.42659       48.69690
H         48.55838       37.25779       49.45864
H         48.69667       35.52229       48.97523
N         50.75452       33.45859       53.58296
C         51.95142       33.42708       54.43623
C         52.54135       32.02472       54.61773
O         53.54816       31.90330       55.30211
C         51.66316       34.12165       55.78529
C         50.65376       33.45445       56.67852
O         50.11164       32.40885       56.36231
O         50.35862       34.02114       57.86343
H         49.94412       32.89744       53.87375
H         52.76108       34.03288       53.97355
H         51.31145       35.15523       55.57167
H         52.61474       34.20409       56.35442
N         52.01738       30.93360       53.99228
C         52.62561       29.61172       54.02432
C         52.51189       28.87901       55.34572
O         53.51320       28.38024       55.83871
H         51.19762       31.04492       53.37982
H         53.68426       29.67161       53.68783
H         52.08525       28.97677       53.28926
N         51.28958       28.68718       55.91235
C         51.01225       27.74880       57.00352
C         49.98148       26.69809       56.54666
O         49.55262       25.89731       57.36470
C         50.61330       28.51262       58.29381
C         49.39038       29.36670       58.16919
O         48.62541       29.25548       57.08130
O         49.11467       30.18573       59.03058
H         50.49399       29.18556       55.49391
H         51.93244       27.18843       57.28035
H         51.46634       29.18383       58.53441
H         50.48134       27.81145       59.14618
N         49.60931       26.59313       55.23023
C         48.77083       25.53215       54.68997
C         47.27413       25.73763       54.81394
O         46.56175       24.89303       54.28409
H         50.05699       27.19473       54.52690
H         49.08067       24.55099       55.10895
H         48.96206       25.48566       53.59425
N         46.70253       26.80247       55.44818
C         45.25376       27.01169       55.49386
C         44.85548       28.34970       54.90174
O         45.71432       29.14676       54.54659
C         44.73997       26.89929       56.94190
C         44.83229       25.45799       57.45727
C         44.24380       25.34060       58.83810
N         44.80061       25.99027       59.88574
O         43.25289       24.64696       59.01363
H         47.30626       27.49332       55.91513
H         44.72386       26.24919       54.88002
H         43.66667       27.18393       56.98219
H         45.30589       27.59803       57.59415
H         45.88583       25.10822       57.47126
H         44.25426       24.80432       56.76529
H         45.64247       26.57024       59.75946
H         44.39239       25.90586       60.82834
N         43.53590       28.63987       54.73598
C         43.01791       29.87343       54.16425
C         42.09956       30.53265       55.18215
O         41.16521       29.89778       55.65795
C         42.27255       29.56480       52.83451
C         41.66297       30.83309       52.21199
C         43.22990       28.92877       51.81182
H         42.83957       27.92519       55.00626
H         43.84748       30.57481       53.91306
H         41.44587       28.84787       53.03634
H         41.13779       30.58430       51.26515
H         40.91291       31.28112       52.89173
H         42.45061       31.58514       51.99260
H         42.68731       28.69523       50.87085
H         44.06712       29.62163       51.57443
H         43.65265       27.97982       52.20158
N         42.28220       31.83696       55.51211
C         41.42156       32.60514       56.40179
C         40.45279       33.41474       55.54980
O         40.52036       33.32301       54.33115
C         42.34675       33.48820       57.28448
C         41.65277       34.37399       58.28728
N         40.88652       33.84893       59.27000
O         41.79933       35.58550       58.22043
H         43.01676       32.35468       55.01587
H         40.81504       31.92704       57.04112
H         42.95982       34.13294       56.61394
H         43.04381       32.82753       57.84409
H         40.75734       32.83092       59.35122
H         40.42052       34.46662       59.95156
N         39.48992       34.20025       56.10388
C         38.60423       35.03142       55.29683
C         39.41396       36.09321       54.55869
O         39.20163       36.28991       53.37278
C         37.52749       35.69942       56.17353
C         36.51310       36.41555       55.31164
C         35.70081       35.68769       54.42121
C         36.37730       37.81031       55.37682
C         34.77890       36.34571       53.60449
C         35.45525       38.46739       54.55569
C         34.65473       37.73640       53.66475
O         33.76684       38.35763       52.86297
H         39.37682       34.21055       57.12708
H         38.07875       34.37593       54.56715
H         38.02063       36.39671       56.88611
H         36.98950       34.92978       56.76977
H         35.78034       34.60949       54.35581
H         36.99273       38.39004       56.05285
H         34.16364       35.77298       52.92129
H         35.36729       39.54460       54.60980
H         33.65502       39.31874       52.86694
N         40.38872       36.79169       55.21192
C         41.26490       37.77916       54.57418
C         42.10491       37.19683       53.43264
O         42.65236       37.98222       52.67068
C         42.18827       38.39197       55.66336
C         43.24924       39.38493       55.16002
C         44.04765       39.93273       56.30779
O         43.44298       40.65854       57.26703
O         45.24945       39.72632       56.37504
H         40.51547       36.59996       56.21612
H         40.61928       38.57720       54.14413
H         42.72752       37.56394       56.17648
H         41.53782       38.89880       56.41060
H         42.76950       40.22330       54.61323
H         43.95449       38.86216       54.47949
N         42.25855       35.85591       53.23998
C         43.08824       35.28472       52.18081
C         42.24406       34.56864       51.13024
O         42.80517       34.14812       50.12877
C         44.12396       34.31517       52.79469
C         44.94891       34.96790       53.91987
C         45.87676       33.98651       54.58249
O         47.07233       34.21349       54.64590
O         45.38935       32.87659       55.16504
H         41.80326       35.20845       53.88582
H         43.63386       36.09376       51.64838
H         44.80400       33.93297       52.00243
H         43.57170       33.45190       53.21146
H         44.26825       35.34705       54.71043
H         45.52425       35.82590       53.50935
N         40.89558       34.40632       51.27443
C         40.03704       33.79399       50.28314
H         39.24648       34.52050       49.99541
H         40.58827       33.49563       49.36876
H         39.54916       32.89821       50.72119
H         40.42797       34.72513       52.12481
Ca        47.61008       30.92755       56.05588
O         45.40901       30.34853       57.97216
H         44.66079       29.90558       58.44464
H         46.22319       29.94848       58.36926
O         46.72618       33.77899       57.84554
H         47.70840       33.88034       57.90801
H         46.38982       34.70310       57.73031

Ca 1.0



