%chk=holoCaM-CaMKII.loop1.water2.frame190.chk
%nprocshared=20
%mem=10GB
%nosave
#b3lyp/svp scf=(tight,noincore,xqc) Test 
#IOP(5/87=12) Density=Current Pop=(MK,readradii) iop(6/33=2) iop(6/42=6)

holoCaM-CaMKII.loop1.water2.frame190 

   0  1 
C         13.88229       73.57231       22.32208
C         13.65374       75.04386       22.47289
O         14.51521       75.72914       23.00256
H         14.86781       73.28335       22.74607
H         13.08295       73.01597       22.85332
H         13.86474       73.30494       21.24429
N         12.50893       75.60663       21.99786
C         12.24895       77.03850       22.06957
C         12.07971       77.47076       23.52636
O         11.05261       77.17891       24.12361
C         10.99143       77.36198       21.23780
C         10.69669       78.82116       21.09379
O         11.51894       79.76570       21.58834
O          9.69476       79.15370       20.49106
H         11.82759       74.99161       21.52477
H         13.11648       77.55667       21.59991
H         10.11256       76.85906       21.69840
H         11.11575       76.95359       20.21070
N         13.09586       78.09957       24.18214
C         13.04779       78.44380       25.60419
C         12.20872       79.66810       25.91594
O         11.88716       79.84165       27.08384
C         14.48169       78.67937       26.14831
C         15.29470       77.37618       26.24224
C         14.82654       76.52299       27.44101
C         15.54063       75.17161       27.55565
N         15.15565       74.26066       26.47550
H         13.98166       78.21481       23.67538
H         12.57550       77.60110       26.14571
H         14.46776       79.14018       27.16073
H         14.99170       79.40068       25.47077
H         16.36380       77.62931       26.41427
H         15.22665       76.83360       25.27966
H         13.73903       76.31934       27.41125
H         15.03224       77.10675       28.36583
H         15.23722       74.71299       28.52337
H         16.64345       75.31274       27.57292
H         14.11572       74.14208       26.46049
H         15.48362       74.61600       25.55058
H         15.59271       73.32708       26.64701
N         11.88276       80.59912       24.97696
C         11.14237       81.81791       25.30305
C          9.85628       81.96212       24.49045
O          9.18319       82.97095       24.65191
C         12.08684       83.03574       25.23344
C         12.77655       83.19318       23.91991
O         12.12318       83.39214       22.91610
O         14.12100       83.13383       23.84702
H         12.22215       80.47914       24.01153
H         10.79969       81.80521       26.36075
H         12.86736       82.90814       26.01592
H         11.52684       83.96644       25.47080
N          9.38210       80.95518       23.69779
C          8.04631       80.97701       23.11637
C          7.82855       81.93257       21.95786
O          6.69472       82.00945       21.50532
H          9.91180       80.07651       23.61664
H          7.31683       81.19852       23.92484
H          7.80977       79.96012       22.73160
N          8.83805       82.64255       21.37444
C          8.63577       83.49215       20.18957
C          8.21919       82.71126       18.92598
O          8.01988       83.33615       17.89304
C          9.92143       84.30015       19.88572
C         11.10111       83.40787       19.61046
O         12.19875       83.48552       20.37533
O         11.05748       82.57936       18.72147
H          9.78157       82.57420       21.78050
H          7.83535       84.22970       20.42038
H         10.15470       84.94998       20.75770
H          9.74916       84.96320       19.01045
N          8.08153       81.35693       18.92470
C          7.74304       80.55010       17.76807
C          8.87614       80.43537       16.77213
O          8.60554       80.45401       15.58503
H          8.20918       80.83595       19.79284
H          6.79084       80.88295       17.29970
H          7.57922       79.51158       18.13091
N         10.14382       80.16822       17.20964
C         11.28678       79.79260       16.36097
C         12.44817       79.26124       17.22461
O         12.45538       79.43249       18.43383
C         11.83889       80.91797       15.42299
C         10.92553       81.40219       14.28649
O         12.31332       82.00812       16.16602
H         10.25863       80.12388       18.22872
H         10.95343       78.93116       15.74231
H         12.71027       80.48464       14.88635
H         11.54392       82.60245       16.35952
H         11.50010       82.08193       13.62156
H         10.56801       80.54207       13.68220
H         10.07299       81.99737       14.66537
N         13.45386       78.54930       16.63597
C         14.57260       77.94467       17.36233
C         15.87241       78.46513       16.76754
O         16.00918       78.46200       15.55288
C         14.48812       76.39164       17.26840
C         13.14501       75.89706       17.87363
C         15.68302       75.74248       18.00363
C         12.90680       74.39412       17.71610
H         13.40099       78.37972       15.62102
H         14.53859       78.19762       18.44481
H         14.52745       76.09870       16.19582
H         12.30082       76.40085       17.35736
H         13.09702       76.16132       18.95280
H         16.64699       76.07605       17.56936
H         15.66986       76.00802       19.08340
H         15.67006       74.63953       17.90558
H         12.92864       74.11469       16.64138
H         13.65740       73.79703       18.27059
H         11.90810       74.13684       18.12823
N         16.89278       78.87900       17.57600
C         18.15290       79.41507       17.06432
C         19.29575       78.44821       17.31601
O         19.09838       77.40783       17.92217
C         18.46890       80.79303       17.71475
C         17.34213       81.81051       17.53089
O         18.78849       80.65707       19.07710
H         16.78574       78.77786       18.59204
H         18.08611       79.55767       15.96420
H         19.36236       81.22575       17.21839
H         17.95022       80.47432       19.57006
H         17.64234       82.78275       17.97752
H         17.12333       81.95988       16.45358
H         16.42849       81.45501       18.04907
N         20.54200       78.75467       16.86307
C         21.72747       77.93969       17.11410
C         21.98235       77.82431       18.61017
O         22.15972       76.71879       19.10257
C         22.96670       78.54898       16.40344
C         22.81366       78.50492       14.87478
O         23.16928       79.87456       16.82482
H         20.65287       79.62910       16.33100
H         21.58240       76.91683       16.69795
H         23.85284       77.92978       16.67662
H         24.07915       80.13871       16.52922
H         21.94459       79.10339       14.53166
H         23.72588       78.91457       14.39215
H         22.68114       77.45624       14.53390
N         21.98163       78.93821       19.39392
C         22.23333       78.93620       20.83352
C         21.28343       78.00778       21.56965
O         21.75089       77.16380       22.32159
C         22.08207       80.36727       21.40903
C         23.09318       81.39669       20.86296
C         24.53880       81.09398       21.28416
C         25.49840       82.17998       20.78069
N         26.86501       81.91693       21.23062
H         21.76589       79.83551       18.93634
H         23.26599       78.57903       21.02988
H         22.18978       80.33703       22.51602
H         21.05615       80.73356       21.18238
H         22.81507       82.38882       21.28135
H         23.02702       81.47103       19.75758
H         24.86787       80.11774       20.87240
H         24.58771       81.05264       22.39437
H         25.17487       83.17295       21.16494
H         25.47443       82.20873       19.66825
H         26.90411       81.92138       22.27606
H         27.19313       80.99178       20.86969
H         27.49613       82.66686       20.86683
N         19.93642       78.11008       21.40211
C         18.96891       77.28379       22.12411
C         19.24809       75.80931       21.88697
O         19.48637       75.09575       22.85234
C         17.52191       77.66804       21.72934
C         17.19968       79.11531       22.16451
C         15.83983       79.57304       21.72508
O         14.97549       80.07851       22.62236
O         15.53675       79.56301       20.54502
H         19.59612       78.80476       20.72363
H         19.07299       77.47440       23.21640
H         16.80202       76.98420       22.22865
H         17.40249       77.55597       20.62917
H         17.93123       79.82084       21.73192
H         17.27518       79.19540       23.27061
N         19.28698       75.28857       20.63193
C         19.63203       73.90422       20.38691
H         20.64865       73.69286       20.78553
H         18.89697       73.23270       20.87795
H         19.63605       73.69993       19.29531
H         19.09788       75.89541       19.82555
Ca        13.72792       81.83524       20.26358
O         14.24506       83.28853       17.81631
H         15.14423       83.69993       17.83258
H         14.40243       82.35494       17.52638
O         16.25834       83.31329       20.74736
H         16.82967       82.67153       21.23925
H         15.78515       83.81922       21.45511

Ca 1.0



