%chk=holoCaM.loop2.water3.frame399.chk
%nprocshared=20
%mem=10GB
%nosave
#b3lyp/svp scf=(tight,noincore,xqc) Test 
#IOP(5/87=12) Density=Current Pop=(MK,readradii) iop(6/33=2) iop(6/42=6)

holoCaM.loop2.water3.frame399 

   -2  1 
C        110.88335       74.39436       80.37066
C        111.59656       75.67505       80.07780
O        110.98961       76.58835       79.53476
H        109.82590       74.45171       80.03567
H        111.38778       73.56497       79.83289
H        110.90673       74.19658       81.46248
N        112.90470       75.81896       80.42414
C        113.63654       77.04373       80.15819
C        113.76794       77.25659       78.65969
O        114.33846       76.41081       77.98463
C        115.03350       77.01575       80.82765
C        115.72439       78.35183       80.73468
O        116.76945       78.54506       81.31678
O        115.14304       79.35892       80.07294
H        113.37903       75.04235       80.91122
H        113.07773       77.88355       80.63151
H        115.67541       76.22055       80.39187
H        114.89348       76.79974       81.90968
N        113.28016       78.38913       78.08026
C        113.49697       78.72387       76.67716
C        114.98410       78.90424       76.42396
O        115.53193       78.21780       75.57330
C        112.74688       80.00729       76.29627
H        112.76465       79.04878       78.67595
H        113.08647       77.90835       76.04143
H        112.87046       80.21349       75.21243
H        111.66205       79.89106       76.50895
H        113.13099       80.88464       76.85339
N        115.70792       79.79306       77.17055
C        117.15238       79.98923       77.02649
C        117.96569       78.72958       77.34248
O        119.16335       78.73455       77.09251
C        117.64632       81.10997       77.97195
C        116.92431       82.41226       77.77026
O        116.97492       82.98791       76.69570
O        116.22556       82.95586       78.78582
H        115.20068       80.35981       77.86513
H        117.34605       80.28616       75.97193
H        118.73334       81.28538       77.81877
H        117.49548       80.78044       79.02292
N        117.39866       77.62693       77.91316
C        118.10970       76.39668       78.21989
C        119.12038       76.50341       79.34985
O        119.73544       75.48908       79.64737
H        116.40100       77.63332       78.12735
H        118.60530       76.02531       77.29612
H        117.36600       75.63068       78.53046
N        119.37436       77.66983       80.01418
C        120.41369       77.78065       81.03359
C        120.02784       77.04646       82.31751
O        120.67680       76.06592       82.65530
C        120.71306       79.27164       81.30463
C        121.86451       79.47022       82.25197
N        123.10708       79.04607       81.92470
O        121.67726       80.03657       83.31815
H        118.87466       78.52491       79.73866
H        121.33911       77.33057       80.60895
H        119.80647       79.77033       81.70518
H        120.96516       79.77387       80.34542
H        123.28666       78.58313       81.02178
H        123.89636       79.19363       82.57000
N        118.99572       77.48717       83.09572
C        118.59694       76.81392       84.32581
C        117.40454       77.40791       85.08961
O        117.05450       76.79712       86.08936
H        118.51530       78.32730       82.78889
H        119.46664       76.79484       85.01994
H        118.33172       75.76444       84.07336
N        116.74127       78.55944       84.74172
C        115.60588       79.09690       85.50249
C        114.37936       79.31692       84.62623
O        114.47655       79.28440       83.40921
C        116.00087       80.44525       86.15781
C        116.95887       80.23160       87.33245
O        116.59179       81.27922       85.19233
H        117.04335       79.11587       83.93655
H        115.29338       78.38462       86.29689
H        115.08850       80.93836       86.56507
H        116.73719       82.16689       85.61115
H        117.22015       81.21189       87.78575
H        116.45602       79.61934       88.11169
H        117.88945       79.72356       87.00753
N        113.16907       79.54398       85.22215
C        111.93980       79.87494       84.50666
C        111.31021       81.13080       85.10848
O        110.89888       81.11681       86.25922
C        110.91295       78.69104       84.50345
C        110.69618       78.06397       85.91178
C        111.34561       77.62362       83.48081
C        109.55996       77.04240       85.97131
H        113.11717       79.48259       86.25043
H        112.16742       80.10186       83.44154
H        109.94474       79.09932       84.13173
H        110.43099       78.84511       86.64701
H        111.63326       77.57422       86.25313
H        110.57337       76.83608       83.36866
H        111.45871       78.08589       82.47715
H        112.30770       77.15429       83.77229
H        108.60593       77.52698       85.69138
H        109.74416       76.17101       85.31311
H        109.45919       76.66442       87.01055
N        111.17726       82.26140       84.35971
C        110.43592       83.44086       84.80350
C        108.94542       83.12793       84.89783
O        108.53810       82.01225       84.60373
C        110.65292       84.60518       83.80454
C        112.06427       85.12630       83.79315
O        112.35920       86.04140       83.04180
O        112.99567       84.63686       84.63318
H        111.59459       82.27514       83.42371
H        110.79910       83.76461       85.80464
H        110.01592       85.47196       84.07281
H        110.37150       84.26706       82.78256
N        108.06694       84.08831       85.30303
C        106.62590       83.88380       85.40362
C        106.01166       83.47380       84.06307
O        105.30387       82.47921       84.06942
C        105.95239       85.12523       86.03356
C        104.46327       84.97654       86.24079
C        103.94473       83.94396       87.04353
C        103.57678       85.89623       85.65290
C        102.56604       83.83614       87.25094
C        102.19994       85.78719       85.86759
C        101.69477       84.75839       86.66597
H        108.44395       85.01106       85.56842
H        106.45195       83.04988       86.12044
H        106.15583       86.02873       85.43429
H        106.41548       85.30018       87.02873
H        104.60292       83.22578       87.51469
H        103.95000       86.70451       85.03620
H        102.17323       83.04066       87.87093
H        101.52502       86.50422       85.41844
H        100.62864       84.67801       86.83389
N        106.22523       84.13048       82.87413
C        105.70750       83.65893       81.59234
C        106.12461       82.23220       81.28720
O        105.27653       81.41301       80.95966
C        106.34436       84.60532       80.55980
C        106.49602       85.87437       81.35765
C        107.00372       85.33677       82.69232
H        104.60040       83.77108       81.59006
H        107.38281       84.28547       80.31505
H        105.78195       84.69059       79.60521
H        107.14259       86.64881       80.89360
H        105.47737       86.29810       81.51365
H        108.07742       85.06303       82.63861
H        106.83202       86.11788       83.44791
N        107.43948       81.87637       81.37253
C        107.94459       80.55160       81.02332
C        107.40453       79.46515       81.94661
O        107.53755       78.29473       81.61748
C        109.49098       80.54590       81.03595
C        110.06706       81.58272       80.04617
C        111.55876       81.59159       80.06954
O        112.23524       81.87751       81.19282
O        112.17956       81.32985       79.05810
H        108.10744       82.59769       81.68012
H        107.60366       80.32528       79.98772
H        109.86098       79.53368       80.75478
H        109.84681       80.77120       82.06599
H        109.74087       82.61136       80.28712
H        109.71440       81.33288       79.02122
N        106.78870       79.77453       83.12032
C        106.19455       78.78631       83.98861
H        105.35690       78.28197       83.46427
H        106.94830       78.03727       84.29014
H        105.79322       79.28390       84.89917
H        106.74168       80.74819       83.42393
Ca       114.34336       81.14865       81.12091
O        115.01730       82.84545       83.35976
H        115.31360       83.72235       83.71028
H        114.35323       82.51654       84.01668
O        113.83690       84.19721       80.29395
H        113.34219       84.32415       79.44590
H        113.30296       84.68779       80.96684
O        117.42193       81.85976       81.78294
H        117.74683       81.00846       81.39934
H        117.62571       81.78492       82.74823

Ca 1.0



