%chk=holoCaM.loop3.water2.frame357.chk
%nprocshared=20
%mem=10GB
%nosave
#b3lyp/svp scf=(tight,noincore,xqc) Test 
#IOP(5/87=12) Density=Current Pop=(MK,readradii) iop(6/33=2) iop(6/42=6)

holoCaM.loop3.water2.frame357 

   0  1 
C         92.52631       28.47573       83.23588
C         91.38511       29.44175       83.12597
O         91.60649       30.64268       83.06895
H         93.49991       29.00676       83.26841
H         92.41334       27.87216       84.16221
H         92.51399       27.79359       82.35944
N         90.11556       28.96086       83.10747
C         88.92022       29.78189       83.01494
C         88.18779       29.60764       84.33098
O         87.16329       28.94238       84.39324
C         88.12874       29.31992       81.77404
C         86.93132       30.16221       81.44408
O         86.24348       29.86056       80.48379
O         86.62387       31.25861       82.15959
H         89.98144       27.93961       83.18520
H         89.16940       30.85916       82.88111
H         87.80725       28.26525       81.91288
H         88.80144       29.36737       80.89000
N         88.74084       30.14771       85.45398
C         88.27159       29.88921       86.81289
C         86.80093       30.21021       86.95301
O         86.03807       29.31228       87.28473
C         89.11461       30.67104       87.85722
C         90.63175       30.36679       87.82465
C         90.97250       28.90428       88.14485
C         92.48260       28.65628       88.02646
N         92.81218       27.27160       88.36203
H         89.56506       30.74886       85.31873
H         88.38424       28.80418       87.01963
H         88.73241       30.44539       88.87721
H         88.98742       31.76152       87.68157
H         91.13208       31.01620       88.57615
H         91.06006       30.63379       86.83833
H         90.46822       28.22316       87.43000
H         90.62785       28.66887       89.17538
H         93.03601       29.34050       88.70679
H         92.80457       28.86491       86.98066
H         93.83932       27.12344       88.23494
H         92.56220       27.07765       89.35889
H         92.29573       26.61341       87.73403
N         86.31995       31.45384       86.67949
C         84.89402       31.75989       86.72395
C         84.12946       30.83787       85.77978
O         83.25297       30.12377       86.24682
C         84.61894       33.26283       86.47756
C         85.01772       33.80264       85.13215
O         86.29590       33.75318       84.71136
O         84.17976       34.34657       84.43482
H         86.99260       32.18796       86.41894
H         84.53195       31.56631       87.75955
H         85.16248       33.84800       87.24934
H         83.53045       33.44387       86.62363
N         84.45488       30.75263       84.45786
C         83.83395       29.81212       83.53184
C         83.08696       30.48706       82.40007
O         82.50071       29.77295       81.59859
H         85.20872       31.35101       84.10133
H         83.10303       29.16226       84.05864
H         84.62083       29.15082       83.11013
N         83.01345       31.84513       82.28600
C         82.15664       32.51540       81.30878
C         82.53338       32.25126       79.85799
O         81.73849       32.57321       78.98594
C         82.07960       34.02899       81.61662
C         83.35311       34.80268       81.33839
N         83.30221       35.97148       80.66115
O         84.42900       34.40021       81.75357
H         83.50278       32.42168       82.97859
H         81.13646       32.10152       81.46879
H         81.83533       34.13490       82.69544
H         81.24209       34.48469       81.04657
H         82.40496       36.35157       80.32677
H         84.15996       36.51516       80.48927
N         83.72834       31.69247       79.52111
C         84.11566       31.37636       78.15799
C         85.23725       32.25491       77.66977
O         85.71390       32.00666       76.57082
H         84.41824       31.49989       80.25769
H         83.27150       31.49557       77.44526
H         84.43492       30.31228       78.12780
N         85.67988       33.32907       78.39025
C         86.71452       34.22951       77.90496
C         87.87634       34.31075       78.92346
O         88.01464       33.08036       79.57994
C         86.08126       35.61644       77.67494
C         84.92952       35.51189       76.69659
C         83.60623       35.66025       77.14257
C         85.16169       35.23405       75.33952
C         82.53460       35.52096       76.25962
C         84.08737       35.10704       74.45057
C         82.76892       35.24495       74.91101
O         81.72243       35.11254       74.07141
H         85.24868       33.55959       79.29604
H         87.12313       33.85388       76.94036
H         86.81906       36.36146       77.30746
H         85.70805       35.97712       78.65786
H         83.39799       35.86277       78.17662
H         86.17274       35.11770       74.97089
H         81.52087       35.62301       76.62761
H         84.27980       34.89576       73.40672
H         81.83759       34.91856       73.13060
N         89.12843       34.63062       78.21741
C         90.25947       35.05509       79.07305
C         90.64012       36.49908       78.73400
O         90.86195       36.80502       77.56990
C         91.45546       34.06874       78.88643
C         91.02077       32.62977       79.28907
C         92.66990       34.51708       79.72796
C         92.07880       31.54863       79.07169
H         88.97030       35.27510       77.40808
H         89.98104       35.00207       80.14695
H         91.75233       34.06988       77.81463
H         90.15427       32.32679       78.66824
H         90.71532       32.61454       80.35953
H         92.99795       35.53705       79.44246
H         92.42093       34.51005       80.81009
H         93.54250       33.85548       79.55813
H         92.97183       31.71117       79.70659
H         91.64879       30.56244       79.35185
H         92.37568       31.51423       78.00278
N         90.76350       37.42967       79.71950
C         91.06469       38.83664       79.49650
C         92.49434       39.13033       79.89459
O         93.19581       38.22158       80.30659
C         90.07449       39.69774       80.30991
O         90.24455       39.48457       81.69059
H         90.69216       37.12056       80.69098
H         90.96046       39.09383       78.42024
H         89.02979       39.46965       79.99261
H         90.23005       40.77768       80.10949
H         89.45079       38.98904       82.02127
N         93.00565       40.38489       79.78645
C         94.36461       40.72745       80.19229
C         94.57429       40.44895       81.67168
O         95.54941       39.80073       82.02171
C         94.64651       42.20316       79.89790
H         92.39871       41.12971       79.40887
H         95.09393       40.13385       79.59504
H         95.69238       42.45297       80.17788
H         94.52344       42.39744       78.81048
H         93.95239       42.86214       80.46098
N         93.66455       40.88577       82.58995
C         93.78655       40.67067       84.03112
C         93.99162       39.20633       84.37250
O         94.96513       38.88767       85.04161
C         92.53302       41.19502       84.74389
H         92.83195       41.38400       82.23883
H         94.66020       41.24679       84.40886
H         91.62552       40.65640       84.39363
H         92.62804       41.05704       85.84191
H         92.40129       42.27789       84.53550
N         93.12809       38.25790       83.91938
C         93.28792       36.82733       84.17856
C         94.66026       36.34590       83.72383
O         95.38743       35.79726       84.54046
C         92.15733       36.04722       83.47934
C         90.80062       36.24557       84.19361
C         89.70636       35.64609       83.36799
O         89.40836       36.16780       82.31257
O         89.08188       34.50899       83.70968
H         92.34025       38.57257       83.33141
H         93.21593       36.62762       85.27109
H         92.37498       34.95590       83.49097
H         92.11422       36.37171       82.41659
H         90.56207       37.31935       84.35212
H         90.85614       35.74570       85.18421
N         95.10308       36.55230       82.45615
C         96.42755       36.16109       82.02315
H         97.19503       36.65956       82.65436
H         96.54414       35.05987       82.09589
H         96.58946       36.47152       80.96843
H         94.49754       37.02995       81.78598
Ca        88.36744       33.53182       81.79758
O         86.73870       36.94216       81.15965
H         86.42925       37.84166       80.88546
H         87.44061       36.71192       80.50100
O         86.61199       36.80748       84.33061
H         85.67385       37.11986       84.38258
H         86.85085       36.58123       85.26461

Ca 1.0



