%chk=holoCaM.loop1.water1.frame60.chk
%nprocshared=20
%mem=10GB
%nosave
#b3lyp/svp scf=(tight,noincore,xqc) Test 
#IOP(5/87=12) Density=Current Pop=(MK,readradii) iop(6/33=2) iop(6/42=6)

holoCaM.loop1.water1.frame60 

   0  1 
C         46.46928       24.74649       21.58360
C         46.13767       26.20665       21.59003
O         46.35097       26.85722       22.59989
H         47.21478       24.53324       20.78972
H         46.88359       24.43179       22.56499
H         45.54362       24.16643       21.38450
N         45.61737       26.78378       20.47093
C         45.21472       28.18588       20.36558
C         44.02166       28.46781       21.28559
O         42.88285       28.30033       20.87411
C         44.96574       28.50492       18.86346
C         44.32784       29.82263       18.49924
O         43.35304       29.81067       17.76768
O         44.81062       31.00956       18.90951
H         45.52152       26.17998       19.63916
H         46.07310       28.79629       20.69142
H         44.31697       27.71191       18.43049
H         45.95079       28.44380       18.34854
N         44.24037       28.81124       22.59257
C         43.19960       28.93373       23.61550
C         42.25000       30.10273       23.41894
O         41.23858       30.13176       24.10619
C         43.85038       29.00902       25.03167
C         44.65167       30.30990       25.30949
C         45.60521       30.13816       26.51070
C         46.57296       31.32627       26.70975
N         45.93949       32.47702       27.34727
H         45.21283       28.88246       22.90239
H         42.61059       27.99080       23.57239
H         44.53413       28.13369       25.10094
H         43.08479       28.89339       25.82883
H         43.96352       31.17113       25.44579
H         45.28439       30.53280       24.43863
H         46.23743       29.25392       26.28580
H         45.05774       29.91881       27.45117
H         47.01205       31.63430       25.73751
H         47.41051       30.99109       27.36239
H         46.65222       33.23785       27.44388
H         45.13961       32.82873       26.77660
H         45.61503       32.20897       28.30477
N         42.53856       31.13925       22.57978
C         41.69498       32.33138       22.46886
C         41.27392       32.65355       21.03173
O         40.56139       33.62999       20.84491
C         42.36186       33.51527       23.20848
C         43.73767       33.91650       22.75378
O         44.36871       34.92059       23.39202
O         44.30294       33.33927       21.84142
H         43.43085       31.12028       22.06783
H         40.73809       32.17417       23.01361
H         42.44825       33.23300       24.28147
H         41.69350       34.40129       23.15082
N         41.58410       31.83813       19.98374
C         41.03673       32.00483       18.64249
C         41.55300       33.21063       17.88606
O         40.75211       33.98036       17.37610
H         42.14915       30.99388       20.14877
H         39.92586       32.01176       18.68972
H         41.31820       31.11873       18.04171
N         42.89089       33.39690       17.72642
C         43.50320       34.41998       16.88475
C         44.48714       33.81206       15.86771
O         45.12987       34.57352       15.15794
C         44.16332       35.49684       17.76827
C         45.15852       34.97033       18.75675
O         44.98089       35.20725       20.06723
O         46.14282       34.36024       18.38638
H         43.52003       32.77346       18.23544
H         42.73055       34.95862       16.29228
H         43.36036       36.01349       18.33825
H         44.65454       36.25534       17.12187
N         44.61178       32.46076       15.68925
C         45.44757       31.85096       14.66053
C         46.93075       31.76391       14.98118
O         47.64322       31.20491       14.15813
H         44.00116       31.82311       16.21472
H         45.28309       32.36594       13.68796
H         45.11333       30.79878       14.52938
N         47.47923       32.25988       16.12866
C         48.90077       32.12769       16.46362
C         49.10136       31.51193       17.84363
O         48.14366       31.30932       18.57277
C         49.61099       33.50387       16.39264
C         49.68857       34.04221       14.95771
O         49.00538       34.43600       17.25354
H         46.87215       32.75400       16.78982
H         49.40582       31.44887       15.74095
H         50.66680       33.38761       16.71780
H         48.17693       34.76433       16.81611
H         48.67604       34.19880       14.53148
H         50.23568       35.00890       14.95269
H         50.24328       33.32419       14.31602
N         50.35928       31.17481       18.24618
C         50.72336       30.62097       19.54738
C         51.76871       31.52736       20.20014
O         52.70960       31.95352       19.54477
C         51.18765       29.13633       19.36596
C         49.91221       28.24986       19.22035
C         52.05818       28.63698       20.53373
C         50.16901       26.75492       19.02665
H         51.12910       31.30132       17.57066
H         49.85327       30.59679       20.23854
H         51.82694       29.06341       18.45909
H         49.31340       28.60694       18.35622
H         49.28525       28.35594       20.13645
H         52.96920       29.26080       20.64317
H         51.48997       28.64747       21.47355
H         52.42405       27.60727       20.35113
H         50.68189       26.31243       19.90543
H         49.19412       26.23011       18.92770
H         50.76865       26.58003       18.11108
N         51.68187       31.78803       21.53641
C         52.61004       32.59531       22.31805
C         53.39362       31.67287       23.23748
O         53.22340       30.46748       23.14914
C         51.83050       33.64966       23.16560
C         50.92273       34.55590       22.32281
O         51.10472       33.03958       24.20857
H         50.94761       31.31717       22.06555
H         53.32349       33.12790       21.65279
H         52.56612       34.32360       23.65175
H         50.25998       32.68140       23.84198
H         51.51627       35.09472       21.55635
H         50.13392       33.95976       21.81848
H         50.42699       35.30272       22.98095
N         54.25631       32.15866       24.16816
C         54.92638       31.29553       25.13852
C         53.89395       30.60627       26.02820
O         53.95687       29.39598       26.19230
C         55.90744       32.11694       26.00397
C         56.72239       31.21019       26.93500
O         56.79591       32.80432       25.15981
H         54.41810       33.17621       24.20938
H         55.52969       30.53483       24.59154
H         55.31810       32.84351       26.61387
H         57.02374       33.65892       25.61076
H         57.31166       30.48050       26.33734
H         57.42471       31.82217       27.53762
H         56.06225       30.65163       27.63094
N         52.90202       31.33791       26.61935
C         51.88758       30.79375       27.53109
C         50.97038       29.73830       26.91214
O         50.13412       29.20561       27.62957
C         51.00589       31.94071       28.08998
C         51.77457       33.02569       28.87164
C         52.51604       32.45422       30.08725
C         53.15763       33.56405       30.92464
N         53.84646       32.99903       32.08446
H         52.88890       32.34789       26.41908
H         52.40793       30.29373       28.37291
H         50.24126       31.51542       28.77713
H         50.46558       32.42797       27.24710
H         51.02780       33.77193       29.22062
H         52.49490       33.56034       28.21783
H         53.31813       31.76354       29.75152
H         51.79526       31.89494       30.72224
H         52.36712       34.26489       31.27349
H         53.88529       34.13260       30.30319
H         54.62323       32.37259       31.77053
H         54.24618       33.77543       32.65867
H         53.17316       32.45540       32.67248
N         51.07409       29.36712       25.61090
C         50.25308       28.35519       24.96856
C         51.13170       27.16617       24.62164
O         50.82585       26.06570       25.05929
C         49.59359       28.99378       23.73714
C         48.58962       30.06995       24.16574
C         48.03032       30.80143       22.98941
O         48.71031       31.54734       22.31524
O         46.78376       30.56484       22.60997
H         51.76889       29.82237       25.01579
H         49.44759       27.98046       25.64111
H         49.06190       28.22415       23.13324
H         50.37807       29.45186       23.11616
H         49.03649       30.80977       24.86060
H         47.76946       29.53601       24.68229
N         52.26989       27.32062       23.88950
C         53.19827       26.24804       23.59965
H         54.18531       26.49617       24.04646
H         52.86538       25.27368       24.01292
H         53.31921       26.15044       22.50139
H         52.52159       28.25009       23.54399
Ca        46.26379       31.14624       20.55066
O         48.09555       35.24461       20.58635
H         48.32157       34.72669       19.77437
H         48.79590       35.94238       20.63341

Ca 1.0



