%chk=holoCaM.loop3.water1.frame363.chk
%nprocshared=20
%mem=10GB
%nosave
#b3lyp/svp scf=(tight,noincore,xqc) Test 
#IOP(5/87=12) Density=Current Pop=(MK,readradii) iop(6/33=2) iop(6/42=6)

holoCaM.loop3.water1.frame363 

   0  1 
C         98.28055       37.68405       61.57726
C         97.72081       37.95109       60.21723
O         98.29362       38.73614       59.47720
H         99.19655       38.28897       61.74750
H         97.52439       37.94921       62.34467
H         98.53728       36.60771       61.66554
N         96.60567       37.29763       59.79852
C         96.04766       37.51388       58.47549
C         95.39348       38.89300       58.40578
O         94.43998       39.13274       59.13390
C         95.05115       36.38608       58.14484
C         94.68253       36.37935       56.70108
O         93.85640       35.58931       56.29034
O         95.28066       37.22084       55.84788
H         96.18535       36.58903       60.42044
H         96.88437       37.44396       57.74875
H         94.14133       36.49349       58.77467
H         95.50999       35.39655       58.35697
N         95.89747       39.86876       57.59588
C         95.40207       41.24553       57.60722
C         93.99063       41.41895       57.05697
O         93.39858       42.45029       57.34603
C         96.37228       42.18356       56.85944
C         97.82393       42.26103       57.40251
C         97.95223       42.82453       58.83398
C         97.84894       41.76389       59.94694
N         97.84125       42.38872       61.26777
H         96.72981       39.64840       57.03360
H         95.33749       41.58673       58.65569
H         95.95819       43.21589       56.87887
H         96.41997       41.86346       55.79421
H         98.32980       42.98631       56.72790
H         98.37891       41.30344       57.30858
H         97.21549       43.64533       58.96664
H         98.96829       43.26380       58.94459
H         98.73051       41.09444       59.86503
H         96.95158       41.13118       59.86811
H         97.80624       41.64119       61.99869
H         98.70285       42.96378       61.40610
H         96.99114       42.99091       61.36538
N         93.40133       40.51048       56.22902
C         92.03670       40.67106       55.70920
C         91.15617       39.45881       56.00087
O         89.97710       39.51426       55.67932
C         92.07687       41.04984       54.20901
C         92.93535       40.12346       53.40821
O         92.62544       38.82536       53.30015
O         93.99993       40.52231       52.96216
H         93.95575       39.69950       55.91803
H         91.52700       41.52056       56.21503
H         92.52926       42.06415       54.14650
H         91.05471       41.11014       53.77836
N         91.62874       38.35238       56.64390
C         90.78998       37.23576       57.03378
C         90.13705       36.53458       55.86859
O         88.92145       36.39827       55.88330
H         92.61430       38.29649       56.92833
H         90.01352       37.58932       57.74835
H         91.41632       36.48843       57.56930
N         90.88594       35.99859       54.86132
C         90.32135       35.12432       53.83367
C         90.85758       33.69864       53.98137
O         90.43771       32.83536       53.22446
C         90.56070       35.69222       52.41460
C         91.96699       35.49495       51.89623
N         92.19308       34.81558       50.74706
O         92.91135       35.94697       52.51291
H         91.90179       36.16316       54.86719
H         89.21894       35.07104       53.96467
H         90.29699       36.77280       52.40724
H         89.86601       35.17968       51.71536
H         91.41430       34.42603       50.19702
H         93.15499       34.68379       50.39976
N         91.78981       33.38493       54.93460
C         92.34191       32.06321       55.15410
C         93.83332       31.99623       54.87304
O         94.39888       30.93948       55.11777
H         92.13914       34.10393       55.57244
H         91.84551       31.30281       54.51414
H         92.15335       31.78961       56.21447
N         94.52265       33.02251       54.27949
C         95.90210       32.88322       53.81358
C         96.80364       34.01392       54.27765
O         96.45172       35.17515       54.12403
C         95.94273       32.81130       52.27561
C         95.24150       31.56801       51.77931
C         93.83825       31.48950       51.75122
C         95.99710       30.45801       51.36523
C         93.20445       30.31855       51.32670
C         95.36190       29.28626       50.94801
C         93.96214       29.21203       50.92886
O         93.33722       28.08480       50.53402
H         94.02703       33.89021       54.02763
H         96.34562       31.92378       54.16274
H         97.01782       32.74766       51.99260
H         95.52867       33.72131       51.78893
H         93.23311       32.33256       52.05865
H         97.07956       30.48987       51.38643
H         92.12297       30.27003       51.31325
H         95.95977       28.43536       50.64692
H         93.82638       27.29578       50.25999
N         98.05145       33.72127       54.74774
C         99.05361       34.70787       55.13666
C        100.21931       34.62875       54.15926
O        100.76683       33.55053       53.96764
C         99.53271       34.42694       56.59348
C         98.33315       34.51128       57.56773
C        100.64716       35.41564       57.00492
C         98.66446       34.12641       59.00989
H         98.33537       32.73007       54.79727
H         98.63214       35.73773       55.10813
H         99.94997       33.39592       56.63305
H         97.53074       33.82151       57.23090
H         97.93190       35.53880       57.55202
H        101.03757       35.18884       58.01621
H        101.51750       35.33775       56.32268
H        100.27266       36.46144       56.98787
H         97.74102       34.18666       59.62377
H         99.04945       33.08556       59.04725
H         99.40626       34.81463       59.46115
N        100.69161       35.75818       53.55782
C        101.85417       35.78780       52.67297
C        103.03439       36.41371       53.39432
O        102.88791       36.79809       54.54148
C        101.50833       36.57450       51.39427
O        101.18483       37.90178       51.71592
H        100.25408       36.65862       53.80036
H        102.15600       34.75673       52.38721
H        100.64278       36.09263       50.88974
H        102.37935       36.56170       50.70188
H        101.09717       38.38769       50.85513
N        104.24951       36.53565       52.79348
C        105.39689       37.17079       53.44011
C        105.10177       38.62654       53.75322
O        105.32684       39.05284       54.87645
C        106.63219       37.08869       52.54001
H        104.36143       36.16944       51.83506
H        105.64787       36.62817       54.38030
H        106.87733       36.02486       52.33503
H        106.46035       37.61302       51.57651
H        107.50353       37.55178       53.05261
N        104.55413       39.43261       52.79868
C        104.21900       40.84075       53.00176
C        103.37461       41.03871       54.24458
O        103.73664       41.84786       55.08762
C        103.46577       41.37298       51.77451
H        104.33218       39.00627       51.88551
H        105.15582       41.42974       53.11373
H        103.21758       42.44724       51.90733
H        104.09548       41.26678       50.86573
H        102.52200       40.80627       51.61538
N        102.25534       40.29367       54.43929
C        101.41496       40.38747       55.63095
C        102.24526       40.12976       56.87942
O        102.30447       40.99619       57.74082
C        100.24998       39.38427       55.51477
C         99.29486       39.77961       54.37115
C         98.27959       38.70993       54.12786
O         97.49586       38.29662       55.13043
O         98.16862       38.19847       53.02484
H        102.02023       39.59908       53.71418
H        100.98402       41.41152       55.70808
H         99.66909       39.35134       56.46314
H        100.66955       38.37159       55.33683
H         99.84333       39.94951       53.42179
H         98.77984       40.72611       54.64399
N        102.95154       38.97811       57.02272
C        103.82004       38.72334       58.14941
H        104.61222       39.50118       58.19618
H        103.23601       38.72148       59.09224
H        104.31170       37.73363       58.02708
H        102.89736       38.26674       56.29256
Ca        94.40624       37.63107       53.86609
O         95.04369       38.37981       50.83234
H         95.21490       39.23896       50.37069
H         94.27211       37.98804       50.35098

Ca 1.0



