%chk=holoCaM.loop4.water3.frame401.chk
%nprocshared=20
%mem=10GB
%nosave
#b3lyp/svp scf=(tight,noincore,xqc) Test 
#IOP(5/87=12) Density=Current Pop=(MK,readradii) iop(6/33=2) iop(6/42=6)

holoCaM.loop4.water3.frame401 

   -3  1 
C         90.70454       66.61486       96.76616
C         90.43602       66.64884       98.23956
O         89.47744       66.02823       98.67549
H         91.70799       66.17517       96.58581
H         89.94791       65.98667       96.24669
H         90.66691       67.64140       96.34901
N         91.24986       67.35863       99.07529
C         91.06785       67.37571      100.52507
C         92.04558       68.35229      101.17812
O         93.23913       68.24907      100.92855
C         91.30286       65.96257      101.11061
C         90.84162       65.84192      102.53513
O         91.03925       64.80338      103.14318
O         90.14498       66.83271      103.12509
H         92.02053       67.90144       98.65514
H         90.02131       67.69075      100.73331
H         92.38345       65.71292      101.03244
H         90.74130       65.18859      100.55242
N         91.60538       69.30730      102.04860
C         92.47060       70.31307      102.66832
C         92.60239       70.09875      104.18461
O         93.51889       70.67214      104.75710
C         91.90835       71.73621      102.31338
C         91.88097       71.93446      100.77169
C         92.68895       72.88459      102.98657
C         91.09838       73.17291      100.31765
H         90.60417       69.33225      102.27079
H         93.50180       70.21874      102.26190
H         90.86155       71.77882      102.69020
H         91.38113       71.06932      100.29510
H         92.91882       71.97882      100.37612
H         92.24389       73.87018      102.74722
H         92.63673       72.81288      104.09052
H         93.75108       72.88016      102.66344
H         90.04946       73.11869      100.68096
H         91.56055       74.11455      100.67262
H         91.07947       73.20970       99.20789
N         91.72731       69.33799      104.91227
C         91.78766       69.24412      106.37758
C         91.62532       67.82541      106.94307
O         91.70000       67.68970      108.15707
C         90.77111       70.22936      107.00839
C         89.33493       70.05107      106.60373
O         89.01094       69.22150      105.77524
O         88.39379       70.85078      107.13920
H         90.92525       68.92101      104.42916
H         92.78204       69.58841      106.73646
H         91.05885       71.26411      106.72297
H         90.83778       70.15563      108.11527
N         91.43153       66.72265      106.16199
C         91.33651       65.36339      106.69510
C         90.10606       65.06601      107.54741
O         90.01065       63.95052      108.03878
H         91.41971       66.82827      105.14409
H         92.25012       65.15331      107.29140
H         91.31763       64.64679      105.84594
N         89.12423       65.98503      107.76093
C         87.93620       65.74712      108.58673
C         87.10838       64.55462      108.09867
O         86.76287       63.71337      108.91641
C         87.07657       67.03753      108.68711
C         86.44485       67.41364      107.37964
O         87.21942       67.51386      106.28531
O         85.23355       67.53146      107.29144
H         89.23586       66.91090      107.33456
H         88.27335       65.53524      109.62642
H         87.72573       67.87104      109.03121
H         86.27656       66.89294      109.44709
N         86.78256       64.40407      106.78010
C         85.98641       63.30049      106.25397
C         84.79971       63.75767      105.41511
O         84.11343       62.89525      104.88602
H         87.16019       65.07574      106.10107
H         85.61400       62.64210      107.06814
H         86.64061       62.68859      105.59710
N         84.50117       65.07807      105.22961
C         83.40795       65.57050      104.39451
C         83.96848       66.47682      103.26935
O         85.18847       65.99584      102.79456
C         82.44636       66.40704      105.26438
C         81.80615       65.58958      106.39224
C         80.92527       66.46721      107.24585
N         81.17344       66.62004      108.56805
O         79.97657       67.04742      106.73853
H         85.07379       65.78202      105.69395
H         82.86337       64.72050      103.92763
H         81.63409       66.83384      104.64080
H         83.01633       67.25443      105.70868
H         82.60067       65.13540      107.02226
H         81.19460       64.77138      105.95568
H         81.96572       66.13930      109.01858
H         80.56956       67.22266      109.14668
N         83.02664       66.61330      102.15597
C         83.49094       67.52610      101.09371
C         83.14642       68.97716      101.41866
O         81.98848       69.28340      101.66742
C         82.87598       67.07030       99.74502
C         83.33114       67.96740       98.58422
C         83.29157       65.62036       99.43515
H         82.06072       66.86206      102.46656
H         84.59309       67.43883      100.95664
H         81.76655       67.11434       99.80938
H         82.97801       69.00398       98.73628
H         84.43983       67.96658       98.49617
H         82.89610       67.60991       97.62759
H         82.93787       64.92733      100.22677
H         82.84743       65.28839       98.47321
H         84.39863       65.53735       99.36223
N         84.11354       69.93501      101.34453
C         83.86164       71.36729      101.48185
C         83.67908       71.96570      100.09650
O         83.88257       71.27591       99.11137
C         85.05646       71.99116      102.25028
C         85.07874       73.49226      102.39840
N         84.10995       74.14754      103.07421
O         86.01129       74.12395      101.92309
H         85.04938       69.64618      101.02826
H         82.91361       71.53990      102.03679
H         85.98729       71.70256      101.72203
H         85.08908       71.54924      103.26323
H         83.32205       73.63699      103.49512
H         84.15534       75.17226      103.17702
N         83.22762       73.23709       99.94198
C         83.04913       73.87064       98.63837
C         84.38167       73.99407       97.91414
O         84.46328       73.61722       96.75340
C         82.27661       75.20871       98.78416
C         82.87694       76.22440       99.73211
C         82.28496       76.43229      100.99169
C         84.00547       76.98081       99.37795
C         82.82784       77.35425      101.88804
C         84.54742       77.90525      100.27651
C         83.96224       78.09037      101.53773
O         84.47749       78.97154      102.41799
H         82.97651       73.76448      100.78804
H         82.38070       73.23585       98.01190
H         81.27627       74.91976       99.17794
H         82.09337       75.67752       97.79326
H         81.40977       75.86774      101.28986
H         84.46593       76.85878       98.40658
H         82.36755       77.49087      102.85864
H         85.42170       78.47612       99.99134
H         85.26379       79.49862      102.21799
N         85.48374       74.46806       98.56181
C         86.79553       74.64388       97.93536
C         87.46639       73.31679       97.54187
O         88.55536       73.35720       96.98746
C         87.69431       75.44479       98.91969
C         89.02121       76.00670       98.36967
C         88.82175       77.05173       97.30244
O         88.33597       76.75987       96.22195
O         89.20760       78.32193       97.53050
H         85.36769       74.75613       99.54299
H         86.63379       75.25796       97.02818
H         87.91403       74.79644       99.79694
H         87.11986       76.32323       99.28979
H         89.69183       75.20887       97.99781
H         89.54324       76.49191       99.22276
N         86.88229       72.10629       97.77849
C         87.50012       70.81948       97.48336
C         86.77814       70.18006       96.31294
O         87.41627       69.91449       95.30429
C         87.44335       69.92034       98.74063
C         88.13632       70.58387       99.94465
C         87.98030       69.81888      101.23202
O         88.43424       70.36113      102.37705
O         87.41029       68.74099      101.26807
H         85.95525       72.06947       98.20569
H         88.56810       70.94900       97.19582
H         87.91613       68.93547       98.52942
H         86.37902       69.74462       99.00632
H         87.68837       71.58376      100.11474
H         89.21239       70.71719       99.72244
N         85.43798       69.93444       96.36519
C         84.67618       69.37923       95.26555
H         83.88497       70.10163       94.97194
H         85.30475       69.16934       94.37565
H         84.19378       68.43447       95.58964
H         84.91626       70.16629       97.21746
Ca        86.49341       67.18150      104.19513
O         87.63191       65.84852      100.97034
H         87.13240       64.99453      100.98675
H         87.23610       66.34943      100.21384
O         86.20956       69.93269      104.79216
H         85.53156       69.87452      105.51084
H         86.68752       70.78195      104.96302
O         88.07828       64.60277      103.65580
H         88.69712       64.29445      104.36435
H         87.52793       63.80915      103.44069

Ca 1.0



