%chk=holoCaM.loop4.water3.frame326.chk
%nprocshared=20
%mem=10GB
%nosave
#b3lyp/svp scf=(tight,noincore,xqc) Test 
#IOP(5/87=12) Density=Current Pop=(MK,readradii) iop(6/33=2) iop(6/42=6)

holoCaM.loop4.water3.frame326 

   -3  1 
C          7.47666       27.18500       88.73635
C          8.58427       26.71712       89.63340
O          8.93715       27.44601       90.54764
H          6.56218       27.35353       89.34571
H          7.76458       28.13796       88.24696
H          7.24017       26.43339       87.95474
N          9.14296       25.48419       89.46948
C         10.11483       24.92576       90.39989
C         11.20099       24.14466       89.67780
O         10.87754       23.26521       88.88970
C          9.36616       24.02726       91.38843
C         10.31662       23.43758       92.37864
O         10.38364       22.22729       92.51691
O         11.12956       24.24647       93.08527
H          8.75827       24.86531       88.73885
H         10.58746       25.73468       91.00065
H          8.81828       23.22119       90.85323
H          8.62687       24.64794       91.93987
N         12.51941       24.38695       89.94565
C         13.62608       23.70311       89.28266
C         14.47429       22.88059       90.28048
O         15.24843       22.05664       89.82071
C         14.48478       24.77056       88.51391
C         13.58047       25.68168       87.63048
C         15.58530       24.12350       87.64786
C         14.30344       26.90352       87.05228
H         12.74886       25.11626       90.63051
H         13.21212       22.98212       88.54365
H         14.96512       25.42084       89.27963
H         12.76201       26.09986       88.24581
H         13.11454       25.09116       86.81271
H         16.20436       24.89044       87.14271
H         16.29356       23.53083       88.25522
H         15.13058       23.46877       86.87336
H         14.74724       27.50943       87.87187
H         15.09568       26.61807       86.33370
H         13.57269       27.54088       86.51025
N         14.42158       23.06879       91.64172
C         15.30436       22.35977       92.58718
C         14.59545       21.78834       93.83014
O         15.27458       21.16462       94.63690
C         16.48463       23.27436       93.00187
C         16.11191       24.56619       93.66957
O         14.94824       24.89717       93.79352
O         17.08313       25.38522       94.11404
H         13.81900       23.81060       92.01044
H         15.77583       21.49088       92.07950
H         17.07826       23.53116       92.09875
H         17.14890       22.70801       93.69051
N         13.25833       21.92508       94.05490
C         12.55120       21.33726       95.19555
C         12.83540       21.96063       96.56383
O         12.26858       21.48332       97.53646
H         12.69486       22.40195       93.34801
H         12.77138       20.24822       95.22892
H         11.45871       21.44944       95.02531
N         13.67488       23.02087       96.72529
C         14.00808       23.64469       98.01928
C         12.83878       24.35307       98.74069
O         13.05878       24.85037       99.83691
C         15.14402       24.67711       97.79865
C         14.60993       25.87417       97.06022
O         13.88198       25.67659       95.94576
O         14.69798       26.98903       97.54722
H         14.15478       23.36076       95.88490
H         14.40152       22.84082       98.67980
H         15.96552       24.20064       97.22181
H         15.56116       25.00670       98.77605
N         11.59309       24.46222       98.19742
C         10.46702       25.11681       98.85922
C         10.46419       26.64623       98.83753
O          9.49614       27.20211       99.33652
H         11.40465       24.00067       97.30380
H         10.37309       24.73646       99.89956
H          9.53987       24.81812       98.32291
N         11.45040       27.39613       98.25856
C         11.39885       28.86237       98.13527
C         11.45238       29.24199       96.63292
O         10.59170       28.41629       95.91263
C         12.59231       29.49569       98.87425
C         12.63895       29.12151      100.36343
C         13.81435       29.74777      101.07924
N         14.00487       29.50791      102.39606
O         14.60037       30.46924      100.48073
H         12.25752       26.91190       97.85771
H         10.45241       29.25753       98.56545
H         12.53148       30.60119       98.80116
H         13.53516       29.16215       98.38987
H         12.72185       28.01810      100.46560
H         11.70052       29.45733      100.85503
H         13.35656       28.90119      102.91862
H         14.80398       29.92824      102.89358
N         11.18602       30.65891       96.31899
C         11.23779       30.93251       94.85886
C         12.53707       31.63352       94.44818
O         12.74472       32.77738       94.82896
C          9.98759       31.76199       94.44734
C          9.92539       31.97970       92.92953
C          8.68853       31.06840       94.89053
H         11.80680       31.31044       96.84814
H         11.17353       29.98403       94.28688
H         10.03267       32.75525       94.94614
H         10.82045       32.52360       92.58179
H          9.85378       31.00572       92.40088
H          9.03887       32.59075       92.65804
H          8.65973       30.94981       95.99354
H          7.80913       31.68153       94.59813
H          8.59693       30.06603       94.41898
N         13.45015       31.00012       93.65154
C         14.66017       31.64487       93.12924
C         14.28722       32.67357       92.06472
O         13.13055       32.75790       91.69879
C         15.58873       30.55123       92.52987
C         16.92619       31.01427       92.00713
N         17.81297       31.63892       92.81530
O         17.22521       30.79405       90.84362
H         13.27853       30.01432       93.41107
H         15.19125       32.13577       93.97357
H         15.04448       30.02151       91.71661
H         15.81577       29.82382       93.32728
H         17.58997       31.82272       93.80330
H         18.72811       31.93946       92.44873
N         15.22195       33.49815       91.52368
C         14.95675       34.41875       90.41450
C         14.61134       33.68517       89.11395
O         13.64415       34.08283       88.47772
C         16.07518       35.48722       90.27755
C         17.49289       34.98610       90.44991
C         18.19902       35.34362       91.61630
C         18.11743       34.16463       89.50247
C         19.49116       34.87323       91.83957
C         19.41751       33.69312       89.72738
C         20.10523       34.04331       90.90088
O         21.35138       33.58895       91.14011
H         16.16240       33.47045       91.93276
H         14.05790       35.03277       90.65822
H         15.88624       36.19902       91.11243
H         15.95693       36.08025       89.34501
H         17.74284       35.97550       92.36924
H         17.60249       33.89137       88.59459
H         20.01005       35.14974       92.74931
H         19.88818       33.05342       88.99251
H         21.81357       33.00276       90.52538
N         15.28546       32.57260       88.68738
C         14.91212       31.81924       87.47684
C         13.52152       31.18082       87.55806
O         13.09712       30.58617       86.57594
C         15.91359       30.66986       87.18885
C         17.35634       31.11887       86.92070
C         17.45434       32.03416       85.73301
O         17.96071       33.27309       85.87755
O         17.08378       31.65825       84.63191
H         16.08201       32.24951       89.24723
H         14.91550       32.52051       86.61363
H         15.57528       30.10693       86.28898
H         15.91073       29.96036       88.04579
H         17.97218       30.21555       86.71934
H         17.77411       31.61574       87.81793
N         12.75816       31.25625       88.67972
C         11.45305       30.63864       88.83638
C         10.39541       31.72523       88.81755
O          9.48230       31.64920       88.00741
C         11.43629       29.84515       90.15766
C         12.49492       28.72960       90.16896
C         12.56114       28.00246       91.48271
O         13.42760       27.16396       91.66388
O         11.69762       28.27990       92.47571
H         13.11037       31.76424       89.49253
H         11.22978       29.93434       88.00287
H         10.42973       29.41048       90.31539
H         11.65548       30.53755       90.99753
H         13.49556       29.17387       89.98660
H         12.27554       28.00406       89.36124
N         10.48069       32.79802       89.64936
C          9.53276       33.88707       89.62654
H          8.52067       33.51597       89.88685
H          9.83456       34.65938       90.36729
H          9.52001       34.35453       88.61904
H         11.26257       32.86809       90.30414
Ca        12.22438       27.01487       95.28317
O          9.37882       26.92691       93.89003
H          8.41696       27.15519       93.87042
H          9.62668       26.80156       92.94250
O         14.77505       27.87812       94.39291
H         14.97757       28.43734       95.18442
H         15.65965       27.60083       94.04858
O          9.95414       24.67118       95.46368
H          9.03600       24.66550       95.82831
H         10.18928       23.71366       95.36957

Ca 1.0



