%chk=holoCaM-CaMKII.loop1.water2.frame102.chk
%nprocshared=20
%mem=10GB
%nosave
#b3lyp/svp scf=(tight,noincore,xqc) Test 
#IOP(5/87=12) Density=Current Pop=(MK,readradii) iop(6/33=2) iop(6/42=6)

holoCaM-CaMKII.loop1.water2.frame102 

   0  1 
C         22.59106       34.04316       40.42901
C         22.18700       33.07833       39.36134
O         21.76029       31.98058       39.68330
H         23.65792       34.31652       40.28674
H         21.96157       34.95381       40.36721
H         22.47419       33.58312       41.43385
N         22.30196       33.42227       38.04933
C         21.98524       32.49646       36.97058
C         22.94334       31.31338       37.05384
O         24.13063       31.49107       36.81759
C         22.10143       33.23240       35.61986
C         21.72618       32.40706       34.43444
O         21.77593       32.90897       33.32736
O         21.31127       31.13777       34.57087
H         22.63319       34.37280       37.82101
H         20.92915       32.16371       37.10299
H         23.14283       33.59477       35.48312
H         21.42858       34.11591       35.62991
N         22.50574       30.10033       37.49733
C         23.42644       29.01131       37.82409
C         23.88602       28.22723       36.59829
O         24.74933       27.37665       36.76477
C         22.80184       28.02512       38.85623
C         22.20693       28.68724       40.12161
C         23.16647       29.57820       40.92795
C         24.21403       28.79912       41.72944
N         25.09398       29.71854       42.46073
H         21.51835       30.02738       37.76792
H         24.32282       29.45575       38.30782
H         23.57156       27.28423       39.16234
H         21.97413       27.46659       38.36471
H         21.77516       27.90692       40.78660
H         21.35921       29.31967       39.80866
H         22.55093       30.13836       41.66685
H         23.65164       30.32453       40.26814
H         24.82809       28.14625       41.07188
H         23.67003       28.15292       42.45399
H         24.57016       30.55302       42.81438
H         25.51214       29.22380       43.28106
H         25.86482       30.04320       41.83269
N         23.32748       28.40016       35.36079
C         23.66796       27.56628       34.20700
C         24.18355       28.37445       33.01635
O         25.25088       28.04173       32.51972
C         22.50854       26.59757       33.86485
C         21.14873       27.14753       33.51835
O         20.90713       28.33999       33.51449
O         20.16067       26.28044       33.23010
H         22.57835       29.09239       35.24753
H         24.49658       26.87111       34.47048
H         22.35948       25.94276       34.75203
H         22.83984       25.95149       33.02379
N         23.51701       29.45464       32.52049
C         24.00162       30.26701       31.41131
C         22.96209       30.41728       30.32310
O         23.24414       30.13278       29.16836
H         22.66294       29.76482       32.98888
H         24.94379       29.86790       30.97868
H         24.21697       31.28507       31.80197
N         21.74024       30.91951       30.63686
C         20.69977       31.27563       29.68118
C         20.36259       32.76023       29.80520
O         19.37822       33.19570       29.22356
C         19.47724       30.33363       29.83887
C         18.86625       30.16651       31.20885
O         19.30804       30.85034       32.28110
O         17.98851       29.33214       31.35476
H         21.55024       31.11453       31.62548
H         21.04103       31.12536       28.63318
H         19.82229       29.32136       29.53586
H         18.68151       30.63911       29.12369
N         21.17977       33.61650       30.49581
C         20.92864       35.03808       30.64684
C         19.76058       35.36304       31.55330
O         19.48842       36.54271       31.71584
H         22.06301       33.27273       30.89508
H         20.77730       35.49376       29.64433
H         21.82395       35.51339       31.10506
N         19.01880       34.39404       32.16931
C         17.86219       34.69253       33.00867
C         17.99696       34.03040       34.37377
O         18.88449       33.21688       34.56428
C         16.57337       34.24606       32.28008
C         16.39034       34.98494       30.94305
O         16.56434       32.85824       32.07125
H         19.24899       33.40594       32.02025
H         17.79225       35.78720       33.18389
H         15.69704       34.49665       32.91474
H         17.22351       32.63904       31.36182
H         16.34942       36.08101       31.11230
H         17.22913       34.76572       30.24729
H         15.44751       34.66027       30.45575
N         17.16998       34.39402       35.39827
C         17.26973       33.84411       36.75104
C         15.87991       33.37265       37.16629
O         14.97143       34.19087       37.19272
C         17.80330       34.93664       37.73089
C         19.13143       35.55927       37.21746
C         18.01426       34.33373       39.13803
C         19.53620       36.83115       37.96685
H         16.47982       35.14011       35.22771
H         17.98908       32.99464       36.77487
H         17.04455       35.74835       37.77759
H         19.02391       35.87239       36.15869
H         19.94592       34.80878       37.27422
H         17.07686       33.89153       39.53025
H         18.78927       33.53513       39.10298
H         18.34062       35.10129       39.86702
H         19.71346       36.64759       39.04375
H         20.47459       37.23371       37.52940
H         18.74311       37.60177       37.85101
N         15.63430       32.07269       37.49959
C         14.30051       31.59185       37.86434
C         14.07346       31.72856       39.35430
O         14.98882       32.09073       40.07564
C         14.09284       30.11219       37.43593
C         14.29174       29.92878       35.94075
O         14.99480       29.28491       38.11497
H         16.41382       31.40886       37.50064
H         13.53473       32.20705       37.34149
H         13.05240       29.81079       37.69252
H         14.75785       28.34378       37.90505
H         14.08121       28.87511       35.65649
H         13.61639       30.59738       35.36874
H         15.35009       30.14725       35.70315
N         12.84997       31.45169       39.88347
C         12.58286       31.45654       41.31826
C         13.33831       30.32499       42.01070
O         13.79057       30.52561       43.12912
C         11.06373       31.39292       41.60745
C         10.36844       32.67398       41.10558
O         10.50315       30.25582       41.00196
H         12.08182       31.22015       39.23557
H         12.93647       32.41992       41.75246
H         10.91941       31.33740       42.71084
H          9.54169       30.23887       41.24970
H         10.80392       33.56624       41.60647
H         10.48095       32.79576       40.00804
H          9.28508       32.64564       41.34650
N         13.54294       29.12057       41.39705
C         14.35957       28.05502       41.98251
C         15.80574       28.50429       42.13764
O         16.33961       28.42119       43.23486
C         14.31031       26.76942       41.12312
C         12.99305       25.99728       41.32409
C         13.03214       24.64241       40.59926
C         11.89290       23.71874       41.05825
N         11.98752       22.41192       40.40590
H         13.13375       28.96827       40.46209
H         13.97574       27.79021       42.99280
H         15.11729       26.09227       41.48198
H         14.50510       26.98948       40.04996
H         12.11156       26.59050       40.99560
H         12.89594       25.79879       42.41436
H         13.98541       24.12764       40.84820
H         12.99198       24.80340       39.49974
H         10.90428       24.17756       40.83829
H         11.97228       23.57139       42.15970
H         11.24868       21.77957       40.79026
H         11.84800       22.51469       39.37500
H         12.92273       21.98079       40.59291
N         16.49255       29.00205       41.07343
C         17.87731       29.47048       41.12345
C         18.05105       30.54351       42.18842
O         19.09073       30.56899       42.83338
C         18.33331       29.97225       39.72399
C         18.37765       28.79648       38.71786
C         18.79868       29.16591       37.31862
O         18.05137       29.98702       36.55958
O         19.78226       28.63981       36.82500
H         15.98287       29.07936       40.19182
H         18.53827       28.61952       41.40627
H         19.35024       30.41081       39.79926
H         17.64778       30.77477       39.37785
H         17.38481       28.31565       38.63576
H         19.09004       28.03892       39.11133
N         17.02820       31.38067       42.51336
C         17.10611       32.32709       43.60278
H         16.11605       32.81211       43.74469
H         17.36790       31.79713       44.54379
H         17.86398       33.10713       43.38457
H         16.14058       31.31499       42.00498
Ca        18.67574       30.36922       34.41196
O         17.26889       27.73762       34.68192
H         16.45230       27.28733       34.35152
H         18.00718       27.12573       34.43884
O         15.81516       30.51347       33.38659
H         15.06035       29.87902       33.31994
H         16.21910       30.48631       32.49030

Ca 1.0



