%chk=holoCaM.loop2.water2.frame315.chk
%nprocshared=20
%mem=10GB
%nosave
#b3lyp/svp scf=(tight,noincore,xqc) Test 
#IOP(5/87=12) Density=Current Pop=(MK,readradii) iop(6/33=2) iop(6/42=6)

holoCaM.loop2.water2.frame315 

   -2  1 
C         -0.50592       25.01749       56.71368
C         -1.12710       25.37331       55.39565
O         -0.57714       26.18316       54.66299
H          0.43413       25.58392       56.87871
H         -1.21516       25.22214       57.54100
H         -0.26174       23.93164       56.71030
N         -2.26099       24.73670       55.00414
C         -2.81651       24.85951       53.66603
C         -3.44546       26.21888       53.37584
O         -4.20276       26.70857       54.20212
C         -3.86666       23.75917       53.43450
C         -4.08031       23.65112       51.96646
O         -5.16949       23.88000       51.46995
O         -3.00895       23.35662       51.20030
H         -2.66735       24.03867       55.64773
H         -1.97684       24.66665       52.96056
H         -4.80511       23.97814       53.99199
H         -3.47909       22.77418       53.77009
N         -3.25332       26.82624       52.16300
C         -3.86811       28.09687       51.78097
C         -4.80769       27.99833       50.57147
O         -5.42100       29.01060       50.26050
C         -2.75430       29.10359       51.46808
H         -2.64583       26.36299       51.47546
H         -4.47145       28.49519       52.62494
H         -2.08856       29.22481       52.34823
H         -2.14383       28.74583       50.60910
H         -3.17780       30.09776       51.20957
N         -4.94865       26.86616       49.81413
C         -5.77467       26.80955       48.60091
C         -6.75577       25.62739       48.62068
O         -7.94549       25.88194       48.49077
C         -4.87793       26.94027       47.33769
C         -3.66768       26.05891       47.33453
O         -3.79311       24.73505       47.24463
O         -2.56012       26.54231       47.51050
H         -4.38464       26.03757       50.04334
H         -6.42032       27.71445       48.52872
H         -4.49378       27.98539       47.34510
H         -5.46798       26.81516       46.40466
N         -6.36329       24.33135       48.81080
C         -7.29261       23.19888       48.87135
C         -6.98019       22.08174       47.87979
O         -7.70427       21.09641       47.87218
H         -5.37301       24.13586       48.97664
H         -8.33913       23.52803       48.69786
H         -7.24399       22.76427       49.89290
N         -5.92873       22.15943       47.01674
C         -5.56423       21.14931       46.01735
C         -5.06940       19.80285       46.58129
O         -4.69910       18.95366       45.78204
C         -4.51032       21.75906       45.05280
C         -3.19816       22.15088       45.69178
N         -2.24728       22.76460       44.95514
O         -2.99031       21.93710       46.87388
H         -5.38423       23.02358       47.02167
H         -6.45994       20.94247       45.39124
H         -4.95342       22.67741       44.60733
H         -4.30215       21.05054       44.22339
H         -2.40320       22.97381       43.95905
H         -1.35761       23.04313       45.38927
N         -5.06508       19.50792       47.91439
C         -4.66302       18.21444       48.45940
C         -3.16357       17.95495       48.49776
O         -2.78994       16.88963       48.96792
H         -5.44930       20.18378       48.57900
H         -5.18446       17.40306       47.90581
H         -5.00219       18.16362       49.51672
N         -2.24580       18.86078       48.05594
C         -0.79739       18.65443       48.10907
C         -0.10809       19.76381       48.90120
O         -0.76159       20.69299       49.35559
C         -0.23555       18.59018       46.66018
C         -0.69249       17.31477       45.95032
O         -0.64576       19.70425       45.90757
H         -2.57799       19.74000       47.65072
H         -0.54408       17.70104       48.62322
H          0.87536       18.53539       46.66278
H         -0.16813       20.49495       46.26921
H         -0.33360       16.42281       46.50919
H         -1.79831       17.27254       45.87150
H         -0.25803       17.27715       44.92841
N          1.24793       19.73035       49.05784
C          2.04628       20.78737       49.66638
C          2.77134       21.51698       48.55212
O          3.49335       20.90603       47.77545
C          3.00635       20.21160       50.76590
C          2.20868       20.05647       52.08939
C          4.24731       21.10691       50.99129
C          2.99144       19.43921       53.25070
H          1.76875       18.94202       48.64465
H          1.39972       21.54563       50.15495
H          3.39786       19.22750       50.42507
H          1.31388       19.42468       51.90673
H          1.86480       21.06307       52.41954
H          4.93959       20.66345       51.73314
H          4.84650       21.18855       50.06044
H          3.95585       22.12112       51.32361
H          3.86206       20.06205       53.54079
H          2.33101       19.38079       54.14204
H          3.33256       18.41766       52.98734
N          2.63351       22.86891       48.46422
C          3.31668       23.71460       47.50268
C          4.59958       24.24043       48.11495
O          4.92868       23.86753       49.23355
C          2.37719       24.87617       47.11278
C          1.09607       24.36585       46.52246
O         -0.07703       24.62308       47.13255
O          1.11358       23.71491       45.49030
H          2.07943       23.35068       49.18447
H          3.58901       23.13467       46.59263
H          2.85742       25.54641       46.37111
H          2.14458       25.47696       48.02122
N          5.40728       25.08150       47.41546
C          6.67510       25.57376       47.93512
C          6.50477       26.44729       49.18329
O          7.15541       26.13229       50.16677
C          7.48947       26.25667       46.81801
C          8.92103       26.53098       47.22418
C          9.75545       25.48148       47.66236
C          9.44851       27.82974       47.14261
C         11.08020       25.73190       48.02378
C         10.78108       28.07293       47.49431
C         11.59426       27.02611       47.93781
H          5.13327       25.33901       46.45408
H          7.25850       24.67456       48.22571
H          6.97872       27.17846       46.47253
H          7.53440       25.55953       45.95270
H          9.39057       24.46507       47.72703
H          8.83439       28.65125       46.79646
H         11.70879       24.91901       48.36527
H         11.18543       29.07348       47.42048
H         12.62408       27.21534       48.21088
N          5.65167       27.52346       49.27056
C          5.47212       28.30585       50.49352
C          4.71119       27.56289       51.59378
O          4.50743       28.16160       52.64220
C          4.72086       29.55043       50.01125
C          3.85874       28.98491       48.90709
C          4.83450       28.04832       48.19498
H          6.44855       28.63494       50.91311
H          4.19027       30.12567       50.80148
H          5.45455       30.23248       49.52369
H          3.06572       28.36952       49.39033
H          3.37388       29.73520       48.24734
H          4.24161       27.28314       47.66014
H          5.49205       28.60537       47.49356
N          4.30823       26.26441       51.46407
C          3.68036       25.49786       52.53704
C          4.64775       24.46360       53.10637
O          4.35324       23.91894       54.16042
C          2.41384       24.79036       52.01483
C          1.38666       25.77096       51.43055
C          0.21612       25.07635       50.78847
O          0.10787       23.73471       50.78942
O         -0.63875       25.74087       50.22902
H          4.48570       25.77369       50.58483
H          3.41227       26.17486       53.37763
H          1.94098       24.19448       52.82696
H          2.73081       24.09225       51.21432
H          1.87206       26.38282       50.64209
H          1.01868       26.44356       52.23432
N          5.81619       24.14127       52.47452
C          6.79998       23.22117       53.00321
H          7.77912       23.74322       53.06444
H          6.53649       22.85215       54.01482
H          6.90501       22.35602       52.31577
H          6.03832       24.54600       51.56218
Ca        -2.91457       23.71384       49.01026
O         -3.70506       20.99817       50.07938
H         -4.57650       21.42735       50.27474
H         -3.38079       20.68267       50.95815
O         -1.11496       21.77746       52.64121
H         -0.46470       21.43013       51.98251
H         -1.67915       20.99588       52.86390

Ca 1.0



