%chk=holoCaM.loop2.water1.frame99.chk
%nprocshared=20
%mem=10GB
%nosave
#b3lyp/svp scf=(tight,noincore,xqc) Test 
#IOP(5/87=12) Density=Current Pop=(MK,readradii) iop(6/33=2) iop(6/42=6)

holoCaM.loop2.water1.frame99 

   -2  1 
C         73.15408       41.47731       30.83047
C         71.92598       42.13451       30.27204
O         71.56654       41.88363       29.13134
H         73.89347       42.24859       31.12984
H         72.87180       40.88432       31.72826
H         73.61498       40.79259       30.08854
N         71.20070       42.96470       31.06421
C         69.92762       43.54786       30.66723
C         70.05898       44.60263       29.57452
O         70.80647       45.55512       29.74699
C         69.24200       44.15652       31.90035
C         67.89101       44.67556       31.53398
O         67.57895       45.96413       31.75925
O         67.08567       43.93461       30.99467
H         71.53374       43.11494       32.03040
H         69.26574       42.72373       30.32261
H         69.85748       44.97348       32.33665
H         69.11405       43.36234       32.66857
N         69.26986       44.52812       28.46054
C         69.23421       45.53641       27.40535
C         67.86330       46.21550       27.28054
O         67.73420       47.08256       26.42720
C         69.60401       44.86254       26.07916
H         68.63652       43.72343       28.36249
H         69.97678       46.33800       27.60734
H         70.61435       44.40752       26.15437
H         68.87186       44.06179       25.83375
H         69.61451       45.60098       25.24940
N         66.79661       45.87694       28.06777
C         65.46111       46.46404       27.93712
C         64.97682       47.10422       29.24312
O         64.64096       48.27987       29.19894
C         64.47488       45.43557       27.33638
C         64.59952       44.04692       27.87434
O         64.34918       43.77272       29.15597
O         64.93276       43.13784       27.12902
H         66.90784       45.13425       28.76723
H         65.46052       47.28826       27.18830
H         64.70385       45.35881       26.24999
H         63.42780       45.79673       27.42789
N         64.91486       46.43012       30.43133
C         64.44901       47.03151       31.68112
C         63.28277       46.29189       32.32690
O         62.83494       46.73693       33.37394
H         65.24854       45.46471       30.47531
H         64.13139       48.08447       31.52321
H         65.29083       47.04446       32.40411
N         62.71926       45.18254       31.76646
C         61.53845       44.49741       32.30275
C         61.74241       43.77806       33.65193
O         60.77598       43.20946       34.14107
C         60.98713       43.50469       31.24217
C         61.90555       42.35510       30.92292
N         61.53963       41.41367       30.02468
O         62.98614       42.26701       31.47460
H         63.08763       44.85802       30.86759
H         60.74511       45.26380       32.44072
H         60.79097       44.06036       30.29892
H         60.02329       43.08584       31.59968
H         60.63423       41.47101       29.53832
H         62.16395       40.62073       29.81940
N         62.93664       43.75597       34.31541
C         63.12876       43.13415       35.62332
C         63.54400       41.66685       35.58545
O         63.78523       41.12150       36.65308
H         63.72340       44.29293       33.94282
H         62.21514       43.25792       36.24676
H         63.93787       43.68727       36.14614
N         63.61959       40.95329       34.42409
C         63.93620       39.52390       34.34787
C         65.04106       39.24024       33.31992
O         65.54717       40.16488       32.70227
C         62.64591       38.74091       33.97537
C         61.49926       38.99708       34.96609
O         62.23704       39.01354       32.65689
H         63.36474       41.42274       33.55730
H         64.27500       39.14804       35.33871
H         62.85910       37.65380       34.03450
H         61.88966       39.94093       32.62709
H         61.81744       38.73898       35.99860
H         61.18499       40.06245       34.94492
H         60.62296       38.37118       34.69683
N         65.41516       37.95450       33.04627
C         66.36043       37.56476       32.00026
C         65.59496       36.89621       30.86384
O         64.74130       36.05272       31.09833
C         67.50210       36.67113       32.58211
C         68.47284       37.57077       33.39748
C         68.26730       35.92152       31.47004
C         69.66102       36.83254       34.01943
H         64.95945       37.18828       33.56235
H         66.84882       38.45559       31.55195
H         67.05383       35.88911       33.23332
H         67.90843       38.06844       34.21410
H         68.88723       38.36315       32.73269
H         68.76426       36.63102       30.78542
H         69.02627       35.23747       31.89575
H         67.58490       35.26687       30.88952
H         70.27991       37.55358       34.59401
H         69.30815       36.03242       34.70108
H         70.32203       36.39724       33.24126
N         65.91933       37.22369       29.58039
C         65.26455       36.73100       28.37256
C         66.21573       35.80877       27.64307
O         67.27838       35.53016       28.17017
C         64.92991       37.93463       27.46647
C         64.15367       38.98611       28.18567
O         64.68345       39.49204       29.31146
O         63.14395       39.46908       27.69812
H         66.70172       37.87653       29.43447
H         64.33632       36.17131       28.61740
H         64.39896       37.62989       26.54002
H         65.88704       38.41841       27.16399
N         65.90621       35.27221       26.43318
C         66.80934       34.36508       25.73575
C         68.14862       35.01809       25.35868
O         69.15981       34.48076       25.78902
C         66.10452       33.71567       24.53011
C         67.00768       32.74239       23.80909
C         67.58469       31.65257       24.48937
C         67.28615       32.92177       22.44435
C         68.43177       30.76918       23.81623
C         68.12683       32.02959       21.77324
C         68.70165       30.95636       22.45893
H         64.98661       35.48373       26.01597
H         67.03095       33.53063       26.43744
H         65.73476       34.49336       23.83475
H         65.21237       33.16501       24.90013
H         67.38933       31.48608       25.54069
H         66.85215       33.75044       21.89883
H         68.87884       29.93930       24.34833
H         68.33400       32.17219       20.72109
H         69.35569       30.26932       21.93874
N         68.27995       36.14689       24.58366
C         69.57346       36.71360       24.19676
C         70.32451       37.39275       25.34403
O         71.38595       37.94627       25.09239
C         69.20749       37.67216       23.06016
C         67.85232       38.17840       23.49361
C         67.18658       36.89892       23.99998
H         70.24753       35.93868       23.76931
H         69.96985       38.44313       22.81620
H         69.03564       37.06134       22.14310
H         68.01820       38.86384       24.35487
H         67.27403       38.71561       22.71130
H         66.39754       37.17679       24.72800
H         66.76668       36.31561       23.15514
N         69.88350       37.32591       26.62969
C         70.61523       37.82813       27.78410
C         71.23650       36.64488       28.51954
O         72.41944       36.69778       28.82326
C         69.66433       38.63484       28.68642
C         69.03935       39.82598       27.93901
C         68.07226       40.61001       28.78245
O         67.85185       40.29752       30.07385
O         67.46865       41.54479       28.28400
H         69.00421       36.84212       26.83116
H         71.44465       38.50641       27.48220
H         70.21873       39.00196       29.57873
H         68.85338       37.96757       29.02384
H         68.48115       39.45056       27.05531
H         69.84198       40.50871       27.58759
N         70.51887       35.50928       28.75987
C         71.05748       34.30741       29.36117
H         72.11127       34.42795       29.68212
H         70.44094       34.02543       30.23920
H         71.00526       33.47888       28.62085
H         69.54689       35.45677       28.45658
Ca        64.72620       41.65485       29.61275
O         65.55653       42.86939       32.92576
H         65.56206       43.85677       32.87932
H         66.04431       42.65953       33.76008

Ca 1.0



