%chk=holoCaM-CaMKII.loop3.water3.frame197.chk
%nprocshared=20
%mem=10GB
%nosave
#b3lyp/svp scf=(tight,noincore,xqc) Test 
#IOP(5/87=12) Density=Current Pop=(MK,readradii) iop(6/33=2) iop(6/42=6)

holoCaM-CaMKII.loop3.water3.frame197 

   0  1 
C         19.26824       49.98831       34.82819
C         20.38403       49.32112       35.56730
O         20.27867       49.13161       36.77150
H         18.43784       50.24532       35.51927
H         19.64491       50.91522       34.34924
H         18.88370       49.29945       34.04642
N         21.49048       48.90933       34.89085
C         22.57731       48.20164       35.54424
C         23.26937       49.09776       36.55854
O         23.83098       50.12266       36.19903
C         23.55931       47.65751       34.50457
C         24.57369       46.72582       35.08844
O         25.39931       46.23976       34.34692
O         24.58507       46.40083       36.39649
H         21.52755       49.05992       33.87041
H         22.13233       47.32352       36.05196
H         24.07232       48.50011       33.99264
H         22.99323       47.07345       33.74573
N         23.21245       48.75999       37.87016
C         23.72941       49.55755       38.96953
C         25.25251       49.65899       38.92175
O         25.76142       50.76576       39.02613
C         23.18509       48.94968       40.28634
C         23.26499       49.87437       41.50977
C         22.46692       49.25266       42.67196
C         22.43418       50.15463       43.91129
N         21.63857       49.53984       44.97632
H         22.69966       47.90439       38.10757
H         23.28019       50.57377       38.89675
H         23.65465       47.96409       40.49271
H         22.09552       48.77944       40.12280
H         22.79558       50.85092       41.25434
H         24.32293       50.04789       41.79849
H         22.91151       48.27029       42.94116
H         21.41583       49.08558       42.34281
H         21.98668       51.13941       43.64753
H         23.47140       50.32259       44.27357
H         22.03216       48.60409       45.22838
H         21.65896       50.15396       45.82214
H         20.64520       49.42845       44.66624
N         26.03909       48.55326       38.72920
C         27.50836       48.58946       38.72023
C         28.14216       48.27287       37.35654
O         29.36250       48.19902       37.29610
C         28.06881       47.66982       39.83353
C         27.81820       46.19366       39.66667
O         27.18722       45.75579       38.72082
O         28.30414       45.33882       40.58586
H         25.57202       47.64610       38.58961
H         27.86416       49.61136       38.97632
H         27.63856       47.98769       40.80746
H         29.16991       47.81334       39.88957
N         27.40889       48.15518       36.21021
C         28.01620       47.97733       34.89009
C         28.59453       46.59446       34.60727
O         29.15866       46.42272       33.53567
H         26.39431       48.31109       36.25204
H         28.80901       48.74658       34.75635
H         27.24707       48.16569       34.11154
N         28.49544       45.56258       35.49289
C         29.09704       44.23947       35.27759
C         28.53196       43.45469       34.08679
O         29.11853       42.44395       33.72709
C         29.02426       43.41366       36.59117
C         27.61528       42.92508       37.03254
N         27.29356       41.62856       36.45797
O         26.62089       43.85682       36.69796
H         28.03487       45.75224       36.38826
H         30.17500       44.42469       35.06937
H         29.42925       44.06261       37.39656
H         29.70980       42.53995       36.52931
H         28.03277       40.94708       36.74727
H         26.41664       41.30276       36.92045
N         27.39729       43.84603       33.44330
C         26.82820       43.19079       32.27637
C         25.47449       42.56612       32.54847
O         24.85998       42.11416       31.59140
H         26.89762       44.65992       33.79050
H         27.49215       42.39259       31.88161
H         26.71651       43.96002       31.48123
N         24.97336       42.42572       33.81290
C         23.72646       41.72077       34.09681
C         22.81188       42.52320       34.98910
O         23.29419       43.35545       35.74374
C         24.01724       40.39514       34.82926
C         24.81429       39.43940       33.98236
C         26.19303       39.62080       33.77115
C         24.16808       38.34628       33.38880
C         26.90768       38.72419       32.97295
C         24.87968       37.45959       32.58147
C         26.25292       37.64521       32.37004
O         26.94892       36.79568       31.58959
H         25.52886       42.75247       34.61484
H         23.18021       41.47840       33.15844
H         23.03818       39.92793       35.07595
H         24.53762       40.56058       35.79548
H         26.72003       40.44763       34.22463
H         23.10658       38.19131       33.53649
H         27.96974       38.87134       32.82002
H         24.35924       36.63141       32.11952
H         26.52604       36.04627       31.14660
N         21.47481       42.24299       35.02783
C         20.58897       42.77735       36.05671
C         19.84685       41.64544       36.75535
O         19.63560       40.59431       36.16386
C         19.65300       43.90507       35.53499
C         18.59798       43.40902       34.51793
C         20.51507       45.04067       34.95517
C         17.62082       44.51071       34.08796
H         21.08429       41.58195       34.33773
H         21.21190       43.25690       36.84191
H         19.10879       44.31105       36.41734
H         17.99477       42.60628       34.99287
H         19.09365       42.99078       33.61624
H         19.91309       45.93997       34.71698
H         21.26888       45.34175       35.70545
H         21.04638       44.70921       34.03755
H         16.84908       44.08465       33.41398
H         17.11389       44.94813       34.97516
H         18.13750       45.31788       33.52950
N         19.44981       41.79746       38.04552
C         18.74646       40.78827       38.82891
C         17.40023       41.33151       39.27285
O         17.06204       42.44714       38.91032
C         19.61660       40.42113       40.04624
O         19.82859       41.54898       40.85120
H         19.67627       42.68172       38.51536
H         18.57137       39.86456       38.23510
H         20.59317       40.03505       39.67832
H         19.12373       39.62725       40.64746
H         20.46086       41.27328       41.56372
N         16.57935       40.60886       40.08347
C         15.34152       41.15490       40.63112
C         15.64363       42.37238       41.48699
O         15.06122       43.42313       41.26041
C         14.61893       40.10391       41.48134
H         16.86276       39.65396       40.35251
H         14.65436       41.43709       39.80151
H         15.25226       39.76913       42.33031
H         13.67480       40.52868       41.88649
H         14.36397       39.22215       40.85648
N         16.57315       42.29436       42.48154
C         16.90978       43.40303       43.36796
C         17.34777       44.64551       42.60835
O         16.93480       45.72915       42.99823
C         17.98156       42.97431       44.37594
H         17.06507       41.39656       42.61384
H         16.00687       43.66700       43.96289
H         18.19146       43.80090       45.08846
H         17.61253       42.10445       44.96332
H         18.92236       42.68624       43.86183
N         18.14420       44.57870       41.50026
C         18.49289       45.76956       40.72433
C         17.22634       46.40069       40.16409
O         16.93688       47.54300       40.49220
C         19.50022       45.44859       39.59078
C         20.86983       45.02160       40.16765
C         21.94023       44.78925       39.12962
O         22.76691       43.72387       39.21525
O         22.16238       45.63788       38.28713
H         18.47650       43.65711       41.18415
H         18.98667       46.50714       41.39654
H         19.65962       46.37455       38.99391
H         19.07682       44.68896       38.91070
H         20.78020       44.12040       40.80807
H         21.22551       45.86024       40.80434
N         16.40354       45.69835       39.33958
C         15.15711       46.23094       38.83499
H         14.48418       46.48536       39.68180
H         15.34635       47.13492       38.22015
H         14.65011       45.46829       38.20448
H         16.65724       44.74266       39.07438
Ca        24.75128       43.78766       38.05902
O         24.65474       45.21465       40.92501
H         25.33305       45.93069       40.85586
H         23.91467       45.62616       41.43715
O         26.49737       42.34099       39.88053
H         26.62567       43.26355       40.21510
H         27.07066       41.78236       40.46125
O         23.88192       41.02336       38.31956
H         23.10279       40.91737       38.92032
H         24.41289       40.19752       38.44448

Ca 1.0



