%chk=holoCaM.loop3.water2.frame350.chk
%nprocshared=20
%mem=10GB
%nosave
#b3lyp/svp scf=(tight,noincore,xqc) Test 
#IOP(5/87=12) Density=Current Pop=(MK,readradii) iop(6/33=2) iop(6/42=6)

holoCaM.loop3.water2.frame350 

   0  1 
C          4.45201       42.57933       81.45622
C          4.87882       43.88506       80.84748
O          4.54661       44.93031       81.38401
H          3.34442       42.51554       81.47313
H          4.84162       41.71530       80.87500
H          4.84374       42.50410       82.49172
N          5.61460       43.89045       79.70525
C          6.09596       45.08474       79.02579
C          5.36659       45.14581       77.70370
O          5.95651       44.91856       76.65864
C          7.63246       44.96134       78.92845
C          8.39514       46.08316       78.27159
O          9.17817       45.80587       77.37827
O          8.36061       47.35524       78.72212
H          5.84404       42.98334       79.26852
H          5.85956       46.01222       79.59125
H          7.88553       44.01199       78.40732
H          8.03016       44.87662       79.95520
N          4.02163       45.38450       77.70737
C          3.19370       45.36103       76.50279
C          3.45151       46.54566       75.56971
O          2.88255       46.55439       74.48682
C          1.68946       45.31400       76.86284
C          1.33470       44.11118       77.75834
C         -0.17909       44.01527       77.98952
C         -0.56252       42.93194       79.01432
N         -0.13426       41.59080       78.61277
H          3.56955       45.53575       78.62132
H          3.42414       44.42032       75.95409
H          1.10780       45.22948       75.91793
H          1.39103       46.25505       77.37606
H          1.83370       44.21317       78.74390
H          1.69145       43.17906       77.27135
H         -0.68726       43.81658       77.02039
H         -0.54919       44.98687       78.38380
H         -1.66932       42.94076       79.12708
H         -0.11742       43.18056       80.00346
H         -0.51804       41.35303       77.66988
H          0.90849       41.52393       78.60557
H         -0.49394       40.89979       79.31028
N          4.29477       47.56674       75.90489
C          4.63187       48.67713       75.01142
C          6.09345       48.58655       74.55757
O          6.49396       49.37659       73.71415
C          4.29247       50.05161       75.64860
C          5.02486       50.28559       76.94023
O          4.75360       49.51395       78.01071
O          5.90785       51.12530       77.00249
H          4.76528       47.53061       76.81462
H          4.03204       48.60502       74.07792
H          3.20087       50.13287       75.83824
H          4.56576       50.84400       74.91614
N          6.91990       47.59531       75.00616
C          8.22725       47.30159       74.45215
C          9.31698       48.29815       74.75207
O         10.41588       48.06629       74.26591
H          6.58247       46.92992       75.70054
H          8.12532       47.17705       73.35280
H          8.57219       46.32694       74.86136
N          9.13870       49.41280       75.52213
C         10.23566       50.35926       75.71976
C         11.40753       49.76229       76.50465
O         12.46450       50.37687       76.51949
C          9.74688       51.68905       76.33164
C          9.37548       51.61242       77.79260
N          9.98010       52.42699       78.68876
O          8.51494       50.83295       78.16982
H          8.20984       49.61890       75.91569
H         10.59877       50.61684       74.69883
H          8.86894       52.04661       75.75057
H         10.55206       52.44500       76.20612
H         10.70108       53.10115       78.39222
H          9.72198       52.39699       79.68381
N         11.28963       48.58282       77.18853
C         12.38416       47.93352       77.89817
C         12.19558       47.92501       79.40396
O         13.04034       47.36085       80.08493
H         10.37898       48.10909       77.22254
H         13.35152       48.44293       77.69764
H         12.47019       46.89149       77.52319
N         11.17765       48.60774       80.00104
C         11.08293       48.83257       81.44048
C          9.67303       48.58892       81.92981
O          8.75122       49.13571       81.33728
C         11.42661       50.31122       81.69131
C         12.85092       50.60591       81.29474
C         13.13558       51.23745       80.07340
C         13.90851       50.23640       82.14008
C         14.45680       51.49536       79.70237
C         15.23000       50.51008       81.77547
C         15.50814       51.13976       80.55296
O         16.77737       51.40712       80.18626
H         10.50973       49.12408       79.41046
H         11.80334       48.21138       82.01843
H         11.27715       50.59997       82.75500
H         10.72988       50.93014       81.09041
H         12.33873       51.51249       79.39906
H         13.70724       49.74914       83.08623
H         14.66206       51.97265       78.75242
H         16.03554       50.23182       82.44287
H         17.53250       51.18649       80.74975
N          9.43366       47.87055       83.06780
C          8.09699       47.77339       83.65340
C          8.02462       48.56418       84.94356
O          9.04855       48.95551       85.48885
C          7.63179       46.30071       83.85672
C          8.49933       45.53662       84.89338
C          7.60180       45.58766       82.50312
C          7.98740       44.12469       85.19612
H         10.23123       47.46191       83.57802
H          7.36254       48.25864       82.97468
H          6.58921       46.32698       84.24336
H          8.48606       46.09436       85.85419
H          9.55138       45.46459       84.54644
H          6.97227       46.16331       81.79321
H          8.63009       45.50132       82.09399
H          7.15991       44.57509       82.58638
H          8.04627       43.47013       84.30321
H          8.61806       43.66465       85.98592
H          6.93785       44.16170       85.55851
N          6.80541       48.86988       85.45859
C          6.59207       49.61178       86.69088
C          5.72405       48.79280       87.62896
O          5.34516       47.67999       87.28599
C          5.91552       50.95501       86.35146
O          4.66816       50.74012       85.74917
H          5.97003       48.57928       84.93086
H          7.55614       49.83549       87.19740
H          6.57243       51.52206       85.65434
H          5.78299       51.55655       87.27751
H          4.26438       51.63736       85.61854
N          5.34194       49.29729       88.83236
C          4.36273       48.63427       89.68354
C          3.01215       48.58613       88.98378
O          2.34260       47.56888       89.06453
C          4.22712       49.36632       91.01882
H          5.72186       50.20892       89.13094
H          4.70633       47.60258       89.92564
H          3.88212       50.41064       90.87135
H          3.50245       48.82957       91.66901
H          5.21080       49.37647       91.53630
N          2.55111       49.66011       88.27383
C          1.27064       49.67039       87.56383
C          1.20141       48.71031       86.36823
O          0.12879       48.60853       85.78846
C          0.96016       51.09193       87.07558
H          3.12681       50.51634       88.26158
H          0.47668       49.38919       88.29076
H         -0.04307       51.13248       86.59941
H          0.95876       51.79511       87.93578
H          1.72157       51.42687       86.33902
N          2.27073       47.97118       85.94488
C          2.21368       47.01057       84.84100
C          2.37800       45.57691       85.33849
O          2.30410       44.66812       84.52200
C          3.32349       47.30301       83.81041
C          3.21503       48.68614       83.15996
C          4.34149       48.89652       82.18609
O          5.21086       49.90904       82.36628
O          4.47317       48.15292       81.22677
H          3.16506       48.06788       86.43141
H          1.22731       47.05802       84.33019
H          3.27370       46.54087       83.00355
H          4.30715       47.20377       84.31301
H          3.25710       49.47402       83.93937
H          2.24839       48.77292       82.61948
N          2.59349       45.28380       86.65128
C          2.73370       43.93002       87.13544
H          1.80890       43.35466       86.92079
H          3.60558       43.44232       86.65206
H          2.89603       43.94118       88.23533
H          2.66361       46.03085       87.34404
Ca         6.51767       48.59902       79.04848
O          7.34272       51.95316       81.03005
H          7.69408       51.72006       81.92594
H          7.61557       52.89533       80.89473
O          4.02733       51.80344       80.07934
H          3.22385       51.37832       80.47217
H          4.31016       52.47070       80.75402

Ca 1.0



