%chk=holoCaM-CaMKII.loop1.water2.frame104.chk
%nprocshared=20
%mem=10GB
%nosave
#b3lyp/svp scf=(tight,noincore,xqc) Test 
#IOP(5/87=12) Density=Current Pop=(MK,readradii) iop(6/33=2) iop(6/42=6)

holoCaM-CaMKII.loop1.water2.frame104 

   0  1 
C         27.01207       24.67906       37.03739
C         26.48467       23.79828       35.94611
O         25.52270       23.08237       36.18396
H         27.86626       25.29442       36.68544
H         26.20294       25.36330       37.37229
H         27.34241       24.05692       37.89398
N         27.02825       23.83398       34.69802
C         26.44760       23.08622       33.59451
C         26.86870       21.62219       33.64332
O         28.05436       21.34515       33.51794
C         26.86859       23.71945       32.26153
C         26.00747       23.25551       31.13490
O         26.20476       23.69767       30.01747
O         24.94982       22.44952       31.35390
H         27.79053       24.50402       34.50952
H         25.34204       23.20535       33.67249
H         27.94312       23.51997       32.05335
H         26.72524       24.82083       32.31834
N         25.95723       20.63307       33.86285
C         26.34676       19.23283       34.02752
C         26.73183       18.52425       32.73598
O         27.46859       17.55183       32.83559
C         25.26059       18.42606       34.75833
C         24.88046       18.92474       36.17449
C         26.04478       18.96574       37.18804
C         26.81988       20.30030       37.19632
N         27.96591       20.24007       38.09991
H         24.98182       20.90830       34.04220
H         27.25081       19.18310       34.66478
H         25.61912       17.37790       34.86446
H         24.34100       18.40018       34.13397
H         24.14602       18.17569       36.54321
H         24.35935       19.90219       36.15829
H         26.70929       18.09103       37.01979
H         25.61598       18.87235       38.20953
H         26.12771       21.09879       37.53606
H         27.19201       20.59800       36.20536
H         28.64848       19.52720       37.75269
H         28.43671       21.17427       38.11430
H         27.65662       19.99720       39.06801
N         26.24333       18.88426       31.51168
C         26.60702       18.17075       30.28048
C         27.30075       19.06773       29.26189
O         27.69958       18.56120       28.22189
C         25.38249       17.44045       29.68325
C         24.27105       18.32035       29.18405
O         24.36641       19.65883       29.22789
O         23.27010       17.80798       28.71017
H         25.58058       19.67010       31.45546
H         27.34003       17.36750       30.51152
H         24.97186       16.75960       30.46026
H         25.72103       16.81361       28.82902
N         27.51961       20.39298       29.49733
C         28.25663       21.25062       28.58920
C         27.58734       21.40915       27.24521
O         28.22250       21.11569       26.24206
H         27.20326       20.82025       30.37720
H         29.28569       20.84685       28.46126
H         28.34998       22.26061       29.04315
N         26.32514       21.91989       27.14534
C         25.68863       22.23457       25.86534
C         25.45244       23.73926       25.70997
O         24.99945       24.14362       24.64924
C         24.41697       21.37259       25.65655
C         23.27716       21.62405       26.60415
O         22.31692       20.87146       26.61128
O         23.30022       22.66166       27.44733
H         25.81458       22.12826       28.01458
H         26.37300       21.95643       25.03484
H         24.72805       20.31155       25.77488
H         24.03185       21.50301       24.62305
N         25.77357       24.62930       26.70125
C         25.68233       26.07578       26.56742
C         24.69987       26.70864       27.53334
O         24.65833       27.93137       27.57775
H         26.14724       24.29370       27.59576
H         25.39094       26.37882       25.53941
H         26.69422       26.49134       26.76473
N         23.82945       25.96838       28.27979
C         22.78813       26.55649       29.12039
C         22.68644       25.86874       30.47350
O         23.35736       24.87521       30.71535
C         21.42294       26.49175       28.38437
C         21.32866       27.51194       27.24313
O         21.15899       25.19304       27.91441
H         23.82926       24.94631       28.17070
H         23.01906       27.62383       29.33657
H         20.60859       26.77247       29.08507
H         21.70693       25.03747       27.10002
H         21.45572       28.53865       27.64909
H         22.10200       27.32949       26.46949
H         20.32552       27.44639       26.77092
N         21.86489       26.39402       31.42651
C         21.67250       25.83860       32.76191
C         20.17241       25.66608       32.99419
O         19.43825       26.62968       32.81037
C         22.28505       26.79608       33.82908
C         23.76832       27.12259       33.49778
C         22.17036       26.15984       35.23248
C         24.37763       28.19085       34.40927
H         21.37199       27.27521       31.20851
H         22.19774       24.86108       32.86227
H         21.71372       27.75090       33.81044
H         23.83272       27.53589       32.46928
H         24.38692       26.19878       33.53728
H         21.11488       25.93232       35.48284
H         22.75405       25.21358       35.27785
H         22.54107       26.84203       36.02208
H         23.77880       29.12546       34.35305
H         24.43564       27.85274       35.46231
H         25.41095       28.41737       34.07136
N         19.65074       24.49111       33.44616
C         18.22314       24.28615       33.71537
C         17.98185       24.19684       35.21001
O         18.93067       24.28993       35.96801
C         17.71207       23.00443       33.00399
C         17.82853       23.10590       31.48064
O         18.37308       21.86012       33.48901
H         20.30254       23.72613       33.66760
H         17.62622       25.15175       33.35265
H         16.63110       22.86849       33.21569
H         19.23682       21.77192       33.01090
H         17.22766       23.95844       31.10175
H         18.88528       23.25904       31.20156
H         17.46272       22.16868       31.00870
N         16.72739       24.04560       35.71669
C         16.46324       23.90034       37.14840
C         17.10631       22.63649       37.69882
O         17.85443       22.73690       38.66051
C         14.94410       23.90911       37.45678
C         14.35973       25.31633       37.26325
O         14.27120       22.97502       36.65020
H         15.93345       24.03235       35.05798
H         16.90220       24.76470       37.69829
H         14.80641       23.64176       38.53033
H         13.32014       22.97367       36.93472
H         14.87595       26.03195       37.94063
H         14.47589       25.66354       36.21654
H         13.28190       25.32107       37.53067
N         16.85814       21.41359       37.14841
C         17.41226       20.17144       37.68845
C         18.92995       20.22219       37.77662
O         19.45196       19.90115       38.83603
C         16.91009       18.93128       36.90859
C         15.38832       18.75128       37.11675
C         14.80527       17.44115       36.56722
C         14.84350       17.33758       35.03811
N         14.15050       16.12757       34.59036
H         16.25190       21.36827       36.31632
H         17.04597       20.04140       38.73244
H         17.41233       18.03220       37.32988
H         17.17210       19.00763       35.83117
H         14.82762       19.60804       36.68746
H         15.19512       18.73420       38.21208
H         13.74009       17.40167       36.88599
H         15.33071       16.57255       37.02158
H         15.89677       17.31375       34.68488
H         14.33901       18.22490       34.59559
H         13.14741       16.15773       34.88814
H         14.18642       16.07361       33.54713
H         14.60730       15.27679       34.99223
N         19.70052       20.68735       36.75165
C         21.15472       20.83883       36.87115
C         21.48669       21.73224       38.06161
O         22.15722       21.27620       38.97701
C         21.77165       21.40837       35.56932
C         21.60440       20.43130       34.39021
C         22.21609       20.95201       33.11891
O         21.84368       22.00817       32.63582
O         23.14963       20.22678       32.47669
H         19.22674       20.98703       35.88717
H         21.61131       19.83990       37.05369
H         22.85691       21.58679       35.72676
H         21.30268       22.38550       35.32710
H         20.53124       20.23908       34.20153
H         22.08245       19.46230       34.64862
N         21.00298       23.00094       38.12974
C         21.18304       23.89052       39.25841
H         21.69212       24.81760       38.92262
H         20.18491       24.16493       39.66453
H         21.77399       23.42680       40.07437
H         20.45023       23.35035       37.34837
Ca        23.60023       22.25666       29.60593
O         21.25222       19.76028       29.92431
H         21.08624       19.54867       28.97126
H         20.54642       19.26958       30.41496
O         20.67995       22.68880       29.41463
H         19.94700       22.03031       29.32621
H         20.21859       23.56264       29.43912

Ca 1.0



