%chk=holoCaM-CaMKII.loop3.water2.frame334.chk
%nprocshared=20
%mem=10GB
%nosave
#b3lyp/svp scf=(tight,noincore,xqc) Test 
#IOP(5/87=12) Density=Current Pop=(MK,readradii) iop(6/33=2) iop(6/42=6)

holoCaM-CaMKII.loop3.water2.frame334 

   0  1 
C         25.10624       56.01386       56.89995
C         24.19322       55.08550       57.64607
O         23.03386       54.95435       57.28180
H         25.98155       55.44734       56.51735
H         24.58147       56.48797       56.04431
H         25.46554       56.81089       57.58578
N         24.67243       54.39611       58.71604
C         23.87037       53.47785       59.52378
C         22.76247       54.27385       60.19661
O         23.05310       55.12502       61.02679
C         24.82957       52.80145       60.52624
C         24.36303       51.80830       61.54760
O         23.12767       51.28194       61.62363
O         25.19275       51.45125       62.35945
H         25.66795       54.53529       58.95531
H         23.44330       52.70509       58.85055
H         25.30205       53.61897       61.11260
H         25.62661       52.29314       59.94132
N         21.47139       54.12746       59.78351
C         20.39206       54.99944       60.23508
C         20.06351       54.71785       61.69509
O         20.24592       55.59608       62.52624
C         19.16450       54.81931       59.31086
C         18.07570       55.88043       59.47947
C         16.86385       55.50174       58.61371
C         15.74318       56.53925       58.71497
N         14.55194       56.08234       57.99858
H         21.27992       53.44858       59.03312
H         20.73575       56.05139       60.10656
H         18.71671       53.82687       59.47867
H         19.50154       54.86756       58.25053
H         18.47956       56.87091       59.17226
H         17.75523       55.93243       60.54140
H         16.47773       54.52091       58.96958
H         17.16576       55.39487       57.54721
H         16.09283       57.50526       58.28664
H         15.48048       56.69906       59.78348
H         14.76887       55.93155       56.98666
H         14.20601       55.18869       58.41954
H         13.80096       56.80416       58.08487
N         19.56938       53.50090       62.07424
C         19.24315       53.15460       63.45624
C         20.47988       52.87354       64.31697
O         20.30694       52.61481       65.50028
C         18.22712       51.98494       63.50796
C         18.69019       50.67667       62.92535
O         17.93542       49.71787       62.94337
O         19.90868       50.54578       62.37086
H         19.37335       52.80856       61.34150
H         18.69736       54.01382       63.90750
H         17.31098       52.29475       62.95762
H         17.93659       51.81050       64.56716
N         21.75286       52.94172       63.82101
C         22.93919       52.79611       64.65642
C         23.21559       51.39304       65.18016
O         24.12643       51.26663       65.98621
H         21.90350       53.20003       62.83808
H         22.84288       53.49743       65.51372
H         23.83442       53.11085       64.07933
N         22.50759       50.29477       64.78262
C         22.71835       48.95810       65.35597
C         24.10163       48.34591       65.10524
O         24.38847       47.31408       65.69685
C         21.64647       47.97290       64.84312
C         21.84676       47.60792       63.38804
N         22.05116       46.32205       63.02726
O         21.83600       48.47534       62.52860
H         21.75146       50.42615       64.10023
H         22.58065       49.06660       66.45478
H         20.63688       48.41422       64.98414
H         21.69351       47.04836       65.45908
H         22.07023       45.56460       63.72582
H         22.19032       46.08814       62.03695
N         24.98401       48.89016       64.22284
C         26.30799       48.34862       63.95146
C         26.55020       47.97679       62.49450
O         27.66129       47.54592       62.21885
H         24.70860       49.73695       63.73233
H         26.50838       47.44745       64.56834
H         27.05821       49.11947       64.23558
N         25.61835       48.13316       61.50035
C         25.92744       47.82009       60.09569
C         25.02662       48.55222       59.10570
O         24.11584       49.24179       59.52148
C         26.00155       46.28803       59.86167
C         24.72616       45.49856       60.09761
C         23.59416       45.66043       59.27585
C         24.68506       44.53326       61.12164
C         22.45454       44.86938       59.47369
C         23.54458       43.74823       61.31875
C         22.42725       43.90944       60.49517
O         21.33770       43.13986       60.69527
H         24.70436       48.54224       61.73761
H         26.93309       48.24483       59.87633
H         26.79697       45.89241       60.52679
H         26.34215       46.08080       58.82596
H         23.59182       46.37784       58.46757
H         25.54059       44.37798       61.76644
H         21.59471       44.99491       58.82862
H         23.53176       43.00917       62.11015
H         20.54251       43.21784       60.14894
N         25.28785       48.50252       57.76477
C         24.57982       49.28977       56.75102
C         23.94475       48.36791       55.72254
O         24.64144       47.53528       55.15874
C         25.58817       50.25627       56.04835
C         26.15394       51.27245       57.07376
C         24.92635       50.99730       54.86140
C         27.27649       52.15306       56.51985
H         26.07473       47.92006       57.44091
H         23.78252       49.91910       57.20747
H         26.42707       49.64642       55.64409
H         26.58021       50.72603       57.94091
H         25.33207       51.92146       57.44257
H         25.65430       51.63600       54.32441
H         24.55272       50.28075       54.10173
H         24.07732       51.62415       55.20851
H         26.92859       52.79661       55.68787
H         27.64617       52.82417       57.32336
H         28.11929       51.51962       56.17036
N         22.64040       48.54549       55.35566
C         21.99762       47.80668       54.27031
C         21.67815       48.74355       53.11003
O         21.96279       49.92682       53.19821
C         20.73412       47.10599       54.79429
O         19.80324       48.05141       55.24757
H         22.09309       49.28810       55.81763
H         22.68069       47.02493       53.87393
H         21.02444       46.42578       55.62555
H         20.27747       46.49575       53.98505
H         19.03141       47.53287       55.59455
N         21.10461       48.26219       51.97033
C         20.78939       49.07921       50.79751
C         19.80147       50.18210       51.11356
O         20.04819       51.31934       50.73743
C         20.20424       48.20211       49.68717
H         20.89731       47.25331       51.92628
H         21.72398       49.53210       50.39593
H         20.93803       47.41987       49.40039
H         19.26543       47.71216       50.02305
H         19.98554       48.82071       48.78954
N         18.66110       49.91663       51.80937
C         17.66865       50.93352       52.14471
C         18.31556       52.11342       52.84154
O         18.12270       53.24542       52.42098
C         16.58396       50.32446       53.04894
H         18.51195       48.95104       52.14288
H         17.17488       51.29383       51.21597
H         17.02137       49.94332       53.99808
H         15.81171       51.08397       53.29633
H         16.08624       49.47773       52.53001
N         19.10970       51.90480       53.91951
C         19.72661       52.97822       54.68930
C         20.75676       53.76074       53.88742
O         20.90235       54.95026       54.13198
C         20.34172       52.40233       55.97288
C         19.23085       51.73634       56.81983
C         19.78384       51.18864       58.07370
O         19.38991       51.59451       59.15102
O         20.78665       50.31246       58.03801
H         19.25888       50.92728       54.21148
H         18.93351       53.68878       55.01448
H         20.81237       53.22386       56.55835
H         21.13817       51.66647       55.71346
H         18.75191       50.89208       56.29123
H         18.45580       52.49489       57.06323
N         21.50311       53.16400       52.91661
C         22.49225       53.85555       52.11357
H         23.48130       53.36942       52.24932
H         22.20738       53.78748       51.04200
H         22.58681       54.92796       52.38344
H         21.36426       52.16857       52.72260
Ca        21.99327       50.75606       59.81189
O         19.32344       47.53280       61.27209
H         18.89792       46.82915       61.82309
H         18.56706       48.03289       60.87474
O         20.67915       47.44958       58.58205
H         19.76110       47.08709       58.50731
H         20.91051       47.72722       57.66199

Ca 1.0



