%chk=holoCaM-CaMKII.loop4.water2.frame149.chk
%nprocshared=20
%mem=10GB
%nosave
#b3lyp/svp scf=(tight,noincore,xqc) Test 
#IOP(5/87=12) Density=Current Pop=(MK,readradii) iop(6/33=2) iop(6/42=6)

holoCaM-CaMKII.loop4.water2.frame149 

   -3  1 
C         89.87547       98.06913       62.99640
C         89.45833       96.82664       63.72594
O         89.77947       95.74212       63.26923
H         90.98199       98.10407       62.92199
H         89.43955       98.05930       61.97525
H         89.52523       98.98455       63.51840
N         88.73829       96.90927       64.87739
C         88.27718       95.74305       65.62486
C         87.29681       94.94016       64.77015
O         86.34133       95.51707       64.27005
C         87.63244       96.22073       66.94431
C         87.30822       95.12293       67.91468
O         86.77648       95.44805       69.10576
O         87.56106       93.95537       67.66606
H         88.51428       97.84938       65.24059
H         89.16172       95.12441       65.90004
H         86.71382       96.80630       66.72609
H         88.35534       96.88605       67.46713
N         87.48396       93.60438       64.55672
C         86.67804       92.79515       63.63563
C         85.69713       91.88196       64.37376
O         84.58478       91.72843       63.88770
C         87.60217       91.99829       62.65475
C         88.52485       92.97816       61.88227
C         86.76913       91.13726       61.68448
C         89.46153       92.32293       60.86435
H         88.26176       93.14720       65.04831
H         86.04880       93.46386       63.00532
H         88.24269       91.30479       63.24060
H         89.16933       93.49135       62.61939
H         87.91226       93.73916       61.35146
H         87.42400       90.52411       61.03339
H         86.14264       90.41023       62.24029
H         86.11632       91.77594       61.05357
H         90.09657       91.55458       61.35196
H         88.89062       91.86574       60.03047
H         90.11923       93.10056       60.42027
N         85.99858       91.29637       65.56660
C         85.05601       90.46199       66.32143
C         84.40788       91.24080       67.45968
O         83.57770       90.67314       68.15646
C         85.73664       89.16425       66.81955
C         87.02593       89.44775       67.53403
O         88.06286       88.97640       67.09569
O         87.08412       90.32960       68.55143
H         86.89668       91.52855       66.00598
H         84.20350       90.15326       65.67719
H         85.96353       88.52101       65.93922
H         85.04569       88.59633       67.47789
N         84.66789       92.56295       67.65650
C         83.95511       93.38885       68.60947
C         84.17813       93.00396       70.04887
O         83.19786       92.78538       70.74709
H         85.33980       93.04862       67.05038
H         82.86873       93.36807       68.36900
H         84.29931       94.43801       68.49267
N         85.43455       92.96188       70.58098
C         85.67936       92.81015       72.01446
C         86.49333       93.99405       72.53327
O         87.40559       93.81226       73.32892
C         86.31600       91.43603       72.32313
C         87.67943       91.20919       71.72170
O         88.24201       92.07802       71.07679
O         88.29536       90.02792       71.91305
H         86.23967       93.09684       69.95401
H         84.71107       92.83625       72.55990
H         85.63256       90.64626       71.94294
H         86.40067       91.31394       73.42445
N         86.20567       95.25372       72.09839
C         86.88658       96.46461       72.53341
C         88.36568       96.59120       72.18481
O         88.90203       97.64863       72.48384
H         85.42506       95.37748       71.43589
H         86.76660       96.57501       73.63263
H         86.37593       97.32750       72.05171
N         89.10934       95.59653       71.60881
C         90.54477       95.73341       71.34881
C         90.90658       95.30141       69.93467
O         90.07064       94.78143       69.21138
C         91.33499       94.87322       72.36089
C         91.19304       95.39085       73.80064
C         91.95076       94.52205       74.77134
N         91.59177       93.23174       74.96865
O         92.88971       94.99131       75.39718
H         88.67900       94.68892       71.39902
H         90.86896       96.79123       71.46240
H         92.41933       94.88873       72.11491
H         90.98057       93.82580       72.29144
H         90.12817       95.41567       74.11189
H         91.59597       96.42773       73.83990
H         90.79179       92.82341       74.46374
H         92.10672       92.64161       75.63883
N         92.18442       95.48677       69.49518
C         92.70245       95.03225       68.21014
C         93.85582       94.08164       68.48883
O         94.77356       94.44278       69.21263
C         93.15019       96.24436       67.34668
C         93.84525       95.79323       66.04725
C         91.93425       97.11112       66.97781
H         92.84743       95.97109       70.12015
H         91.92324       94.48970       67.62878
H         93.87303       96.86293       67.92327
H         94.14954       96.67687       65.44652
H         94.76706       95.21670       66.27097
H         93.16861       95.16184       65.43315
H         91.42264       97.48898       67.88671
H         92.25078       97.98577       66.37041
H         91.20648       96.51938       66.38152
N         93.88091       92.85368       67.90191
C         94.92919       91.86160       68.11249
C         95.83674       91.81072       66.88711
O         95.55994       92.49225       65.91097
C         94.22124       90.51551       68.41439
C         95.12546       89.34080       68.67754
N         95.98137       89.34091       69.72436
O         95.06891       88.36480       67.94410
H         93.13378       92.61810       67.23598
H         95.56974       92.15761       68.97133
H         93.56276       90.26782       67.55069
H         93.57011       90.64716       69.30587
H         96.03638       90.14837       70.36088
H         96.59048       88.52735       69.89750
N         96.97861       91.06130       66.88950
C         97.89229       90.98260       65.75063
C         97.19609       90.40305       64.53786
O         97.39302       90.90234       63.43949
C         99.11590       90.10568       66.08176
C        100.07340       90.08558       64.91088
C        100.70446       91.27031       64.49157
C        100.31470       88.89432       64.20762
C        101.55506       91.26449       63.38415
C        101.16480       88.89162       63.09750
C        101.78626       90.07848       62.68116
O        102.60194       90.09237       61.60809
H         97.22246       90.53773       67.74064
H         98.25453       92.00765       65.51598
H         98.76268       89.07725       66.31991
H         99.64402       90.50043       66.97605
H        100.53270       92.20146       65.01684
H         99.83247       87.97190       64.50641
H        102.02915       92.18556       63.06899
H        101.33372       87.96852       62.55801
H        102.78257       89.29589       61.08914
N         96.34079       89.35698       64.68143
C         95.53807       88.81406       63.59476
C         94.75426       89.93720       62.93347
O         94.79527       90.06941       61.71845
C         94.59055       87.73295       64.17805
C         93.71243       87.03693       63.12677
C         92.84906       85.95608       63.73017
O         92.10226       85.31220       63.01120
O         92.88838       85.68287       65.05056
H         96.20449       88.97556       65.62988
H         96.19896       88.33137       62.84087
H         93.93337       88.18983       64.95250
H         95.21843       86.95734       64.67119
H         94.36387       86.57458       62.35487
H         93.04862       87.78320       62.64045
N         94.01880       90.78749       63.69803
C         93.13982       91.81574       63.14531
C         93.88480       93.02522       62.59149
O         93.24876       93.84743       61.94678
C         92.12087       92.25780       64.21742
C         91.36209       91.02609       64.73824
C         90.35029       91.32384       65.78164
O         89.20381       90.96802       65.59150
O         90.68751       91.84060       66.97940
H         94.04137       90.63696       64.71633
H         92.56216       91.35003       62.31536
H         91.39990       92.98089       63.77651
H         92.65288       92.76008       65.04994
H         92.03857       90.28886       65.20833
H         90.86525       90.52748       63.87698
N         95.21419       93.21963       62.81998
C         95.97132       94.34603       62.31216
H         96.82279       93.96945       61.70631
H         95.35976       95.01955       61.67713
H         96.37594       94.93194       63.16460
H         95.72576       92.55478       63.40275
Ca        89.02935       91.46122       68.44895
O         91.18916       91.52178       70.97455
H         90.76706       91.52403       71.87001
H         91.31149       90.56231       70.76879
O         90.82207       88.95689       68.67129
H         91.74929       88.62022       68.74865
H         90.71960       89.17447       67.71166

Ca 1.0



