%chk=holoCaM-CaMKII.loop1.water2.frame384.chk
%nprocshared=20
%mem=10GB
%nosave
#b3lyp/svp scf=(tight,noincore,xqc) Test 
#IOP(5/87=12) Density=Current Pop=(MK,readradii) iop(6/33=2) iop(6/42=6)

holoCaM-CaMKII.loop1.water2.frame384 

   0  1 
C         51.60595      -15.20926       66.43053
C         50.27414      -15.60090       67.00498
O         49.42148      -14.74221       67.15874
H         52.29354      -16.07985       66.36601
H         51.47262      -14.78701       65.41382
H         52.07789      -14.44693       67.08658
N         50.03490      -16.89067       67.36569
C         48.80051      -17.35102       68.00202
C         48.60354      -16.60963       69.31670
O         49.49474      -16.64185       70.15392
C         48.90868      -18.87982       68.19852
C         47.79570      -19.56816       68.94360
O         46.51845      -19.57120       68.51144
O         48.08322      -20.24097       69.91830
H         50.78818      -17.57692       67.19890
H         47.94321      -17.15100       67.32582
H         49.85635      -19.09573       68.74115
H         48.98380      -19.35142       67.19489
N         47.45436      -15.90703       69.55099
C         47.22507      -15.09775       70.74692
C         46.17214      -15.69366       71.66852
O         46.01089      -15.15892       72.75770
C         46.74161      -13.67723       70.36078
C         47.66840      -12.85437       69.45960
C         49.02392      -12.56671       70.11243
C         49.83476      -11.57188       69.27230
N         51.13209      -11.30498       69.89119
H         46.70835      -15.95212       68.84789
H         48.15983      -15.03530       71.34404
H         46.56275      -13.08675       71.28684
H         45.76574      -13.77031       69.83332
H         47.15254      -11.88650       69.27030
H         47.80448      -13.35793       68.48150
H         49.59171      -13.51493       70.22334
H         48.86002      -12.12239       71.11873
H         49.26761      -10.61673       69.18994
H         49.99037      -11.97648       68.24781
H         51.00078      -10.92991       70.85900
H         51.69691      -12.18436       69.92685
H         51.64421      -10.59426       69.32057
N         45.40093      -16.76233       71.31496
C         44.37672      -17.32514       72.19384
C         44.64144      -18.78695       72.52932
O         43.85453      -19.36353       73.26752
C         42.97165      -17.08724       71.59583
C         42.68432      -17.72935       70.26346
O         43.50820      -18.42638       69.69436
O         41.48267      -17.52670       69.69071
H         45.51991      -17.18128       70.38307
H         44.37255      -16.79491       73.17120
H         42.83494      -15.98936       71.48157
H         42.20852      -17.44571       72.32023
N         45.74973      -19.44120       72.07677
C         46.07395      -20.80502       72.45073
C         45.06009      -21.79409       71.94290
O         44.51176      -22.53616       72.74538
H         46.43038      -18.95232       71.48091
H         46.17244      -20.87384       73.55603
H         47.05625      -21.08053       72.01626
N         44.78518      -21.87885       70.60991
C         43.88656      -22.88039       70.04182
C         44.60419      -23.82325       69.07509
O         43.98539      -24.79349       68.66085
C         42.64006      -22.21141       69.42324
C         42.88638      -21.28609       68.26220
O         41.93788      -20.71191       67.75342
O         44.12133      -21.07214       67.77524
H         45.24645      -21.20934       69.98047
H         43.50496      -23.53342       70.85683
H         42.13647      -21.62401       70.22203
H         41.93634      -23.00334       69.08712
N         45.90513      -23.63269       68.69602
C         46.66492      -24.58440       67.89830
C         47.08738      -24.04025       66.54956
O         47.92008      -24.67508       65.91670
H         46.42049      -22.79909       69.00760
H         46.10988      -25.53154       67.72371
H         47.57431      -24.84268       68.48267
N         46.50027      -22.93915       65.99610
C         46.80579      -22.45342       64.64915
C         46.95931      -20.93537       64.62808
O         46.76526      -20.29693       65.65239
C         45.69124      -22.90582       63.66701
C         45.65142      -24.43215       63.49285
O         44.43175      -22.41855       64.05745
H         45.72992      -22.48624       66.50473
H         47.76731      -22.88439       64.29118
H         45.91063      -22.49777       62.65868
H         44.12972      -22.93750       64.84886
H         46.63213      -24.79813       63.12037
H         45.41753      -24.94336       64.45006
H         44.87109      -24.70372       62.75104
N         47.31332      -20.29232       63.47421
C         47.44465      -18.84005       63.34773
C         46.50635      -18.36422       62.24345
O         46.60865      -18.86078       61.12872
C         48.90482      -18.43637       62.98478
C         49.93884      -19.07570       63.94402
C         49.03233      -16.89439       63.00160
C         51.38415      -18.86240       63.48239
H         47.50921      -20.86114       62.63602
H         47.18909      -18.34345       64.31150
H         49.12092      -18.81759       61.96162
H         49.78563      -20.17519       63.96983
H         49.80683      -18.68183       64.97382
H         48.84124      -16.50256       64.02544
H         50.03330      -16.55551       62.67431
H         48.30596      -16.42466       62.31199
H         51.66664      -17.79140       63.48049
H         52.07635      -19.39152       64.16919
H         51.52014      -19.27721       62.45964
N         45.58732      -17.38569       62.46924
C         44.68270      -16.89011       61.43102
C         45.32311      -15.76127       60.63445
O         46.43483      -15.35098       60.93466
C         43.35748      -16.38332       62.06340
C         42.64714      -17.47559       62.85951
O         43.62068      -15.28787       62.90037
H         45.54757      -16.95987       63.40412
H         44.42953      -17.71847       60.73193
H         42.67066      -16.06861       61.24515
H         42.77868      -14.76713       62.97592
H         41.69347      -17.08062       63.27004
H         42.42097      -18.34498       62.20722
H         43.28310      -17.80148       63.70410
N         44.63293      -15.18580       59.60997
C         45.07171      -13.98423       58.90540
C         45.14940      -12.81465       59.87252
O         46.15297      -12.11832       59.87880
C         44.10562      -13.63116       57.74355
C         44.15951      -14.68957       56.63474
O         42.78979      -13.49915       58.21976
H         43.72403      -15.59614       59.35148
H         46.07741      -14.14600       58.45413
H         44.44307      -12.66227       57.30513
H         42.25885      -13.07535       57.49624
H         43.49035      -14.39293       55.79971
H         45.19370      -14.77032       56.23684
H         43.83825      -15.68332       57.00852
N         44.11047      -12.53172       60.71036
C         44.10991      -11.39841       61.63439
C         45.11149      -11.53897       62.77629
O         45.22957      -10.59282       63.54330
C         42.69045      -11.16843       62.20998
C         41.61014      -10.92020       61.13301
C         41.87927       -9.66706       60.27758
C         40.85909       -9.47742       59.14412
N         39.50074       -9.24909       59.63531
H         43.27710      -13.13482       60.66372
H         44.40660      -10.49009       61.07306
H         42.70349      -10.29191       62.89490
H         42.39575      -12.06127       62.80521
H         40.63987      -10.80561       61.65935
H         41.52680      -11.80294       60.46692
H         42.86122       -9.76241       59.77389
H         41.90295       -8.76483       60.92700
H         40.87408      -10.36820       58.47688
H         41.17502       -8.59639       58.54205
H         39.48144       -8.41328       60.26326
H         38.87520       -9.07183       58.81651
H         39.14223      -10.08957       60.14064
N         45.88443      -12.65146       62.94663
C         46.89648      -12.76896       63.99109
C         48.30391      -12.76798       63.40746
O         49.25009      -12.69484       64.17987
C         46.63950      -14.03316       64.82401
C         45.27143      -13.97229       65.51807
C         45.05292      -15.20271       66.33269
O         44.90788      -15.11406       67.53932
O         45.02583      -16.41347       65.75115
H         45.77520      -13.44639       62.30951
H         46.85652      -11.88740       64.66749
H         47.42787      -14.13053       65.60064
H         46.69443      -14.92554       64.16087
H         44.45308      -13.88207       64.77905
H         45.24316      -13.08171       66.18267
N         48.53070      -12.80353       62.06374
C         49.84912      -12.67133       61.48891
H         50.52147      -13.46730       61.86771
H         49.78297      -12.74850       60.38147
H         50.26176      -11.67101       61.74134
H         47.75362      -12.91415       61.40881
Ca        45.55903      -18.12358       67.08980
O         42.06151      -17.15508       66.50472
H         41.43586      -16.40266       66.35789
H         42.63008      -16.86437       67.26079
O         42.98312      -19.61097       65.37856
H         43.61716      -20.28718       65.03826
H         42.10861      -19.86800       64.99208

Ca 1.0



