%chk=holoCaM.loop4.water3.frame170.chk
%nprocshared=20
%mem=10GB
%nosave
#b3lyp/svp scf=(tight,noincore,xqc) Test 
#IOP(5/87=12) Density=Current Pop=(MK,readradii) iop(6/33=2) iop(6/42=6)

holoCaM.loop4.water3.frame170 

   -3  1 
C         14.80838       94.98444        1.06557
C         15.64561       94.13622        1.97612
O         16.61413       93.56293        1.50237
H         13.97397       95.46976        1.61255
H         15.44886       95.78418        0.63212
H         14.39712       94.36705        0.24170
N         15.37095       94.06173        3.31157
C         16.28453       93.44499        4.26581
C         15.51593       92.74809        5.39196
O         14.63902       93.36896        5.97609
C         17.16537       94.57402        4.82930
C         18.37573       94.08637        5.56358
O         18.71208       92.78228        5.56336
O         19.11000       94.89732        6.10203
H         14.59244       94.62936        3.67969
H         16.95355       92.72534        3.74251
H         16.55078       95.22929        5.48318
H         17.55544       95.19170        3.99019
N         15.82422       91.47430        5.77799
C         15.11335       90.73279        6.82945
C         16.01514       90.51081        8.06401
O         15.54240       89.95028        9.04219
C         14.60160       89.37748        6.21296
C         13.74751       89.64090        4.93986
C         13.79036       88.52141        7.21372
C         13.43750       88.37177        4.13521
H         16.60387       91.00024        5.30414
H         14.23535       91.31768        7.18091
H         15.49904       88.79526        5.90512
H         14.30400       90.30251        4.24789
H         12.80263       90.16011        5.20953
H         13.45839       87.56840        6.76031
H         14.39357       88.20188        8.08124
H         12.89690       89.07848        7.56808
H         12.89738       88.64661        3.20514
H         14.38137       87.85798        3.85146
H         12.79443       87.66411        4.69289
N         17.31316       90.93375        8.11095
C         18.24038       90.54986        9.18424
C         19.42047       91.52298        9.41665
O         20.19477       91.26175       10.32673
C         18.77355       89.11688        8.91919
C         19.49020       88.99371        7.59988
O         19.43740       90.00449        6.71304
O         20.10926       87.97757        7.33165
H         17.68471       91.40095        7.28456
H         17.68810       90.53183       10.15029
H         17.94569       88.37613        8.93480
H         19.47613       88.84879        9.73885
N         19.60843       92.66970        8.69804
C         20.63775       93.66350        8.99742
C         22.09798       93.28788        8.74124
O         22.93722       94.13037        9.02676
H         18.93168       92.92880        7.97857
H         20.52603       93.96625       10.06064
H         20.43788       94.56537        8.37945
N         22.50419       92.09124        8.22283
C         23.92749       91.73706        8.03497
C         24.67525       92.53425        6.94476
O         25.85313       92.26719        6.75046
C         24.06977       90.21983        7.75932
C         23.39623       89.77740        6.49656
O         22.80756       90.68491        5.70318
O         23.30891       88.58961        6.23736
H         21.78336       91.38381        8.01903
H         24.45060       91.91239        9.00114
H         23.59545       89.67764        8.60676
H         25.14063       89.92548        7.72391
N         24.08895       93.52435        6.21311
C         24.79699       94.32826        5.21849
C         24.94473       93.69762        3.83579
O         25.43122       94.39384        2.95456
H         23.12746       93.80066        6.43341
H         25.77817       94.66063        5.62202
H         24.19348       95.24674        5.04962
N         24.51919       92.43523        3.54160
C         24.51125       91.85651        2.19511
C         23.08808       91.47722        1.78555
O         22.17249       91.62380        2.58385
C         25.41055       90.60178        2.14417
C         26.88779       90.92307        2.40393
C         27.74483       89.69451        2.22027
N         27.58397       88.60690        3.00997
O         28.59635       89.68206        1.34357
H         24.15472       91.85680        4.29837
H         24.88410       92.59096        1.44723
H         25.35009       90.15040        1.13108
H         25.04260       89.85125        2.87809
H         27.02672       91.32293        3.43066
H         27.21400       91.69920        1.67619
H         26.87799       88.59638        3.75975
H         28.17150       87.77082        2.87222
N         22.83229       90.96111        0.54791
C         21.51178       90.52401        0.10062
C         21.53303       89.02263       -0.11823
O         22.22075       88.54488       -1.01180
C         21.09329       91.30341       -1.18572
C         19.93847       90.64096       -1.96039
C         20.68058       92.73725       -0.82308
H         23.61680       90.84553       -0.11277
H         20.74433       90.72089        0.88128
H         21.95975       91.33454       -1.88318
H         19.68378       91.24287       -2.85856
H         20.23859       89.63918       -2.33190
H         19.03567       90.53914       -1.32920
H         20.42972       93.31291       -1.73926
H         19.77463       92.71563       -0.18030
H         21.49182       93.26561       -0.28239
N         20.77202       88.21751        0.67754
C         20.61745       86.78173        0.46797
C         19.66110       86.54453       -0.69207
O         19.11223       87.49994       -1.22136
C         20.07262       86.15556        1.77878
C         19.98960       84.65070        1.83160
N         21.09392       83.88956        1.65948
O         18.92135       84.11160        2.07661
H         20.26009       88.65000        1.46224
H         21.61610       86.34090        0.25856
H         19.07713       86.59845        2.01248
H         20.77471       86.42934        2.57908
H         22.01057       84.32145        1.47737
H         21.03170       82.86269        1.72024
N         19.41304       85.28784       -1.14646
C         18.40819       84.99912       -2.16981
C         16.98652       85.15914       -1.63733
O         16.07377       85.27741       -2.44297
C         18.65985       83.61379       -2.80488
C         18.75760       82.48820       -1.79652
C         17.61575       81.92373       -1.20510
C         20.02730       82.00033       -1.43464
C         17.74747       80.88620       -0.27203
C         20.15659       80.98291       -0.49074
C         19.02062       80.41760        0.09104
O         19.16686       79.42707        0.99378
H         19.97126       84.52286       -0.75251
H         18.53882       85.74082       -2.99055
H         19.64324       83.70574       -3.31609
H         17.91988       83.37162       -3.59842
H         16.62738       82.27431       -1.47356
H         20.92418       82.42752       -1.86670
H         16.86179       80.44810        0.17001
H         21.14390       80.63619       -0.21184
H         18.41045       78.99844        1.41759
N         16.71755       85.16907       -0.29730
C         15.38624       85.41644        0.25351
C         15.03630       86.90662        0.17081
O         13.91041       87.27388        0.47284
C         15.35478       84.92319        1.72430
C         13.95128       84.87685        2.35598
C         13.97030       84.31401        3.75426
O         12.92176       84.19356        4.36703
O         15.12404       83.93887        4.34290
H         17.48529       84.99044        0.35834
H         14.65757       84.80448       -0.32283
H         16.03343       85.55255        2.34375
H         15.74410       83.88052        1.73312
H         13.29832       84.23103        1.72988
H         13.50844       85.88972        2.40978
N         15.98220       87.82661       -0.18415
C         15.79448       89.26936       -0.16476
C         16.01411       89.88934       -1.54042
O         15.76705       91.08009       -1.67519
C         16.82800       89.86817        0.81737
C         16.73136       89.24569        2.22089
C         17.85440       89.64725        3.13372
O         17.92203       89.10834        4.36435
O         18.73073       90.41120        2.76603
H         16.92624       87.50765       -0.40324
H         14.76220       89.51844        0.16641
H         16.71496       90.97176        0.88414
H         17.84107       89.64340        0.41863
H         16.78829       88.14075        2.14726
H         15.76217       89.52453        2.67318
N         16.50832       89.17126       -2.59456
C         16.76306       89.74052       -3.90224
H         17.84985       89.67692       -4.12322
H         16.21006       89.15844       -4.66815
H         16.45254       90.80343       -3.97369
H         16.75331       88.17907       -2.48506
Ca        20.77477       90.29818        4.97676
O         21.09672       87.69160        4.51882
H         21.90009       87.99213        4.02136
H         21.43501       87.04294        5.18256
O         19.57536       93.19976        2.64309
H         18.95052       92.79238        1.99663
H         19.90118       94.01750        2.19194
O         21.63850       93.53804        4.43053
H         21.24416       93.99213        5.21278
H         21.91860       94.27413        3.83138

Ca 1.0



