%chk=holoCaM.loop4.water3.frame350.chk
%nprocshared=20
%mem=10GB
%nosave
#b3lyp/svp scf=(tight,noincore,xqc) Test 
#IOP(5/87=12) Density=Current Pop=(MK,readradii) iop(6/33=2) iop(6/42=6)

holoCaM.loop4.water3.frame350 

   -3  1 
C         17.89679       43.63220       91.71097
C         17.67815       45.06082       91.31716
O         16.54152       45.51055       91.34177
H         18.58415       43.58983       92.58174
H         16.93448       43.15431       91.99729
H         18.33740       43.07124       90.86183
N         18.73257       45.83897       90.93464
C         18.58635       47.24666       90.57527
C         19.91089       47.80907       90.06176
O         20.90566       47.71395       90.76803
C         18.11990       48.07301       91.80261
C         17.71474       49.47209       91.43941
O         17.33501       50.33037       92.40409
O         17.67369       49.82370       90.27382
H         19.66655       45.40197       90.89246
H         17.81866       47.31563       89.77266
H         18.93337       48.10002       92.55921
H         17.22937       47.62224       92.28127
N         19.98294       48.43208       88.84726
C         21.22494       48.95514       88.26795
C         21.17896       50.49361       88.13133
O         22.19708       51.08643       87.80765
C         21.43441       48.31955       86.84174
C         21.10230       46.80027       86.79289
C         22.86453       48.55850       86.30676
C         21.00223       46.25644       85.35926
H         19.11663       48.52376       88.29949
H         22.07378       48.68481       88.93311
H         20.69939       48.81568       86.16686
H         20.10276       46.62512       87.23069
H         21.83309       46.21206       87.38585
H         22.98002       48.17946       85.27343
H         23.13016       49.62743       86.24899
H         23.60375       48.04334       86.95736
H         20.25981       46.84559       84.77581
H         21.97574       46.28182       84.83312
H         20.65788       45.20140       85.38061
N         20.00845       51.18913       88.25722
C         19.83206       52.57252       87.79956
C         18.97622       53.44855       88.71852
O         18.82300       54.62119       88.40428
C         19.21843       52.52341       86.37401
C         17.91164       51.76162       86.27534
O         17.29774       51.29921       87.38553
O         17.45363       51.49862       85.17592
H         19.16944       50.65920       88.48320
H         20.82236       53.07153       87.71015
H         19.95270       51.98708       85.73182
H         19.09426       53.54493       85.95437
N         18.37807       52.97381       89.84937
C         17.55500       53.78687       90.73922
C         16.24904       54.32100       90.14774
O         15.56299       55.03755       90.86252
H         18.54652       52.00627       90.13467
H         18.16633       54.64583       91.09102
H         17.28788       53.17672       91.62934
N         15.84406       54.05985       88.86981
C         14.67083       54.68293       88.24507
C         13.30047       54.21184       88.75669
O         12.30633       54.70352       88.23939
C         14.74645       54.53975       86.70372
C         14.71299       53.13425       86.16867
O         14.68090       52.06876       86.98810
O         14.73995       52.95862       84.96199
H         16.44781       53.48062       88.27760
H         14.73191       55.77846       88.43038
H         15.68901       55.01222       86.35099
H         13.90086       55.10227       86.25203
N         13.14252       53.30089       89.75867
C         11.83078       52.87192       90.24010
C         11.07495       51.94300       89.29580
O          9.98219       51.52937       89.66064
H         13.96723       52.93909       90.24774
H         11.21606       53.76535       90.48537
H         11.97476       52.29844       91.18171
N         11.59873       51.52275       88.10944
C         10.98634       50.52557       87.23420
C         11.88510       49.30165       87.14741
O         12.95689       49.29666       87.74315
C         10.77494       51.11029       85.82052
C          9.69067       52.19271       85.78532
C          9.48902       52.69388       84.37701
N         10.48151       53.34250       83.72396
O          8.41651       52.51264       83.81954
H         12.51343       51.87882       87.82415
H         10.00881       50.17895       87.63810
H         10.43998       50.30825       85.12898
H         11.74363       51.50351       85.44003
H          9.95508       53.04457       86.44595
H          8.73964       51.74361       86.15064
H         11.38861       53.51583       84.18052
H         10.33995       53.68020       82.76027
N         11.49759       48.21117       86.42562
C         12.29411       46.99743       86.29938
C         12.63359       46.77698       84.83216
O         11.72733       46.62170       84.02299
C         11.51426       45.78829       86.88937
C         12.32678       44.48851       86.78795
C         11.14957       46.02917       88.36287
H         10.58148       48.22852       85.94940
H         13.24123       47.09504       86.87515
H         10.56820       45.65375       86.31871
H         13.27637       44.57666       87.35677
H         11.74634       43.63510       87.19763
H         12.55437       44.25287       85.73159
H         10.57946       45.16282       88.76186
H         12.06590       46.16430       88.97586
H         10.50992       46.92974       88.47068
N         13.93284       46.74361       84.42279
C         14.34801       46.44937       83.05235
C         14.36621       44.94235       82.84746
O         14.15602       44.21317       83.79946
C         15.74047       47.09677       82.81586
C         16.35958       46.88864       81.45721
N         15.73950       47.31007       80.33165
O         17.45487       46.35378       81.37583
H         14.66788       46.86527       85.13345
H         13.62123       46.90222       82.34270
H         16.44745       46.71578       83.58632
H         15.63939       48.19106       82.95198
H         14.82126       47.77336       80.37542
H         16.18172       47.16642       79.41144
N         14.57230       44.39793       81.61962
C         14.66547       42.95804       81.38461
C         15.90050       42.35339       82.04529
O         15.77472       41.30013       82.65559
C         14.50974       42.62884       79.88227
C         15.40383       43.38495       78.92514
C         14.83921       44.38494       78.10986
C         16.77239       43.10098       78.80515
C         15.62563       45.09232       77.20175
C         17.55833       43.80619       77.88382
C         16.98586       44.80494       77.08087
O         17.72787       45.48972       76.18766
H         14.63945       45.03471       80.81671
H         13.78073       42.45979       81.84542
H         13.45793       42.90407       79.64360
H         14.58810       41.53487       79.70240
H         13.78538       44.62587       78.18074
H         17.22762       42.32627       79.40759
H         15.17289       45.86159       76.58839
H         18.61048       43.57449       77.78940
H         18.67076       45.31625       76.05914
N         17.10447       43.00021       82.04606
C         18.29658       42.49155       82.73969
C         18.13322       42.42632       84.26593
O         19.05545       41.97078       84.92858
C         19.53738       43.37785       82.44124
C         19.90940       43.52563       80.95259
C         20.33170       42.25016       80.26851
O         20.39523       41.07836       80.92937
O         20.64846       42.28440       79.09064
H         17.16583       43.88774       81.53343
H         18.49029       41.46218       82.37702
H         20.42629       42.96984       82.97282
H         19.34237       44.39590       82.84646
H         20.76198       44.23553       80.88515
H         19.06514       43.97494       80.39585
N         17.00080       42.85326       84.89125
C         16.78298       42.84490       86.33058
C         15.77623       41.75642       86.64608
O         16.09741       40.86105       87.41542
C         16.32713       44.25749       86.78360
C         17.41439       45.28361       86.42564
C         17.09856       46.72358       86.70483
O         17.91430       47.56162       86.36045
O         15.95802       47.14676       87.28021
H         16.23260       43.22075       84.33191
H         17.72148       42.59614       86.87650
H         16.14024       44.27000       87.88008
H         15.38695       44.53132       86.25995
H         17.61479       45.22920       85.33547
H         18.34543       45.01881       86.97021
N         14.56382       41.72136       86.02956
C         13.63151       40.63168       86.20754
H         12.73462       40.79789       85.57244
H         14.10694       39.67763       85.89090
H         13.31844       40.56231       87.26872
H         14.30411       42.46527       85.37572
Ca        16.08150       49.39626       87.52570
O         14.52805       47.82630       89.77986
H         15.42303       47.59953       90.13422
H         13.89912       47.29903       90.33162
O         14.84659       49.52957       84.97493
H         14.58086       50.41879       84.63806
H         15.82772       49.49625       84.84467
O         14.89332       50.62933       90.19679
H         14.60723       50.42091       91.12132
H         15.59462       51.31974       90.30488

Ca 1.0



