%chk=holoCaM.loop4.water3.frame325.chk
%nprocshared=20
%mem=10GB
%nosave
#b3lyp/svp scf=(tight,noincore,xqc) Test 
#IOP(5/87=12) Density=Current Pop=(MK,readradii) iop(6/33=2) iop(6/42=6)

holoCaM.loop4.water3.frame325 

   -3  1 
C          7.67970       37.08922       98.94522
C          8.61549       36.97123      100.10990
O          9.15830       37.98550      100.51906
H          6.86010       37.79130       99.21220
H          8.22421       37.48912       98.06511
H          7.23005       36.10988       98.68204
N          8.82825       35.77161      100.72443
C          9.58739       35.66106      101.96365
C         10.23975       34.28719      102.08160
O          9.54305       33.29248      101.93205
C          8.62063       35.89542      103.14089
C          9.32045       36.10809      104.45225
O          8.58934       36.27078      105.56992
O         10.53611       36.19764      104.50940
H          8.29289       34.95307      100.39661
H         10.36295       36.45869      101.99597
H          7.91759       35.03777      103.21728
H          8.02491       36.81542      102.95913
N         11.56282       34.15892      102.39768
C         12.24736       32.86699      102.51121
C         12.64917       32.57534      103.96249
O         12.77898       31.41223      104.31575
C         13.52980       32.81056      101.60219
C         13.34375       33.55525      100.25699
C         13.95432       31.34597      101.36373
C         14.60082       33.59393       99.37933
H         12.09893       35.01584      102.56831
H         11.55042       32.06736      102.17798
H         14.35208       33.34601      102.13080
H         13.12030       34.60669      100.49906
H         12.49604       33.13443       99.67762
H         14.12170       30.80752      102.31564
H         13.16878       30.81258      100.78473
H         14.90757       31.28571      100.80175
H         15.46596       33.99862       99.94855
H         14.85317       32.58740       98.98997
H         14.41956       34.25443       98.50532
N         13.00096       33.58812      104.80841
C         13.64444       33.40132      106.10977
C         12.90283       34.11048      107.26121
O         13.38974       34.04887      108.38132
C         15.13162       33.82524      105.95210
C         15.25477       35.16384      105.29440
O         14.77132       36.23073      105.92203
O         15.68059       35.26826      104.15461
H         12.91897       34.55821      104.47982
H         13.67278       32.32718      106.39389
H         15.61663       33.08594      105.27781
H         15.67242       33.80714      106.92233
N         11.68847       34.71842      107.08971
C         10.86016       35.23856      108.18162
C         11.37014       36.46868      108.92751
O         10.71435       36.86302      109.88121
H         11.26178       34.70210      106.15943
H         10.70703       34.41862      108.91624
H          9.86069       35.50377      107.77527
N         12.51667       37.11570      108.58653
C         13.09962       38.22345      109.36187
C         12.33590       39.55790      109.34355
O         12.82721       40.49609      109.95753
C         14.55454       38.44891      108.89788
C         14.69079       38.82375      107.45024
O         13.61380       39.02800      106.66625
O         15.80475       38.87118      106.95517
H         13.04939       36.74042      107.79181
H         13.17152       37.89695      110.42298
H         15.09700       37.48788      109.04149
H         15.05736       39.21471      109.52602
N         11.15223       39.74216      108.69253
C         10.44433       41.02258      108.66652
C         11.06209       42.08036      107.75032
O         10.47160       43.14138      107.61967
H         10.70021       38.94061      108.23796
H         10.32905       41.41311      109.70143
H          9.42371       40.84006      108.26617
N         12.20932       41.84812      107.05220
C         12.79848       42.74318      106.05688
C         12.82294       42.03841      104.70039
O         12.39077       40.89869      104.62115
C         14.22399       43.13112      106.49346
C         14.21960       43.87091      107.84216
C         15.59543       44.29575      108.29452
N         15.73791       44.96221      109.46292
O         16.58333       44.04629      107.61820
H         12.69429       40.97334      107.20742
H         12.18851       43.66619      105.94769
H         14.67565       43.79790      105.72760
H         14.84906       42.21333      106.57549
H         13.78945       43.21104      108.62610
H         13.58550       44.77934      107.75309
H         14.91615       45.18085      110.04548
H         16.66967       45.26127      109.78647
N         13.27937       42.67115      103.57440
C         13.21230       42.05574      102.24700
C         14.60214       41.97022      101.62091
O         15.22377       42.99969      101.40258
C         12.23430       42.86158      101.34315
C         12.04048       42.17541       99.98198
C         10.85791       43.02079      102.01196
H         13.62715       43.63806      103.64615
H         12.79984       41.02997      102.32553
H         12.64706       43.88035      101.17325
H         11.35141       42.76581       99.34198
H         13.00329       42.09025       99.44412
H         11.60662       41.16239      100.12044
H         10.17428       43.59729      101.35314
H         10.40110       42.03189      102.21625
H         10.94376       43.57502      102.96951
N         15.13554       40.75755      101.28117
C         16.41503       40.59527      100.58697
C         16.20337       40.74218       99.08509
O         15.07080       40.85528       98.65535
C         16.99761       39.19827      100.94139
C         18.36359       38.88884      100.38256
N         19.43291       39.65378      100.69961
O         18.51283       37.91577       99.65938
H         14.58178       39.91202      101.46979
H         17.12058       41.37716      100.94235
H         16.27937       38.41439      100.60827
H         17.10157       39.12875      102.03939
H         19.33391       40.46855      101.32114
H         20.36530       39.42542      100.32519
N         17.25652       40.77601       98.22470
C         17.11574       40.83646       96.76579
C         16.49555       39.57224       96.17020
O         15.77495       39.69608       95.18864
C         18.44525       41.24068       96.07603
C         19.67665       40.56356       96.64205
C         20.61396       41.34185       97.34882
C         19.89377       39.18407       96.51950
C         21.73094       40.75142       97.93741
C         21.01607       38.59116       97.11267
C         21.93481       39.37490       97.82884
O         23.01124       38.81983       98.42062
H         18.19561       40.78791       98.63803
H         16.41206       41.66364       96.51379
H         18.55382       42.33198       96.26196
H         18.37905       41.11905       94.97296
H         20.47150       42.40947       97.46471
H         19.19454       38.56953       95.97499
H         22.43130       41.36642       98.48890
H         21.16752       37.52331       97.02239
H         23.18528       37.86903       98.38783
N         16.67785       38.33497       96.72134
C         16.02271       37.12290       96.20871
C         14.50401       37.13275       96.43153
O         13.84669       36.18199       96.03072
C         16.60578       35.85553       96.88643
C         18.10715       35.63873       96.62671
C         18.41014       35.46720       95.16344
O         17.84683       34.45949       94.46956
O         19.17302       36.23447       94.59869
H         17.30714       38.25535       97.52885
H         16.21348       37.04424       95.11588
H         16.07050       34.95468       96.51099
H         16.43626       35.91669       97.98403
H         18.43134       34.71814       97.15712
H         18.69148       36.48355       97.04262
N         13.88348       38.16460       97.06735
C         12.46625       38.23515       97.38397
C         11.83642       39.37007       96.59856
O         10.87291       39.13359       95.88334
C         12.31398       38.47969       98.89882
C         12.94638       37.34987       99.72316
C         12.95015       37.61917      101.20247
O         13.60869       36.78249      102.02334
O         12.40985       38.60721      101.66845
H         14.44117       38.95386       97.38911
H         11.94060       37.28902       97.12146
H         11.24059       38.58132       99.16038
H         12.83193       39.42520       99.16132
H         14.00862       37.22942       99.42445
H         12.39992       36.40914       99.51319
N         12.34629       40.63156       96.66388
C         11.79680       41.74090       95.92089
H         10.75640       41.93796       96.25123
H         12.40849       42.65125       96.10440
H         11.81650       41.51729       94.83349
H         13.16785       40.81967       97.24582
Ca        13.40348       37.67997      104.93500
O          9.88232       39.27814      103.00404
H          9.18355       39.87390      103.37227
H         10.16492       39.72173      102.16689
O         15.43292       39.07410      103.77957
H         15.45885       39.76528      104.48594
H         15.97902       38.32513      104.12868
O         10.45969       39.20595      105.74128
H          9.84219       39.97512      105.82553
H          9.94301       38.43725      106.08558

Ca 1.0



