%chk=holoCaM-CaMKII.loop1.water2.frame157.chk
%nprocshared=20
%mem=10GB
%nosave
#b3lyp/svp scf=(tight,noincore,xqc) Test 
#IOP(5/87=12) Density=Current Pop=(MK,readradii) iop(6/33=2) iop(6/42=6)

holoCaM-CaMKII.loop1.water2.frame157 

   0  1 
C        103.58581      102.03646       38.54650
C        103.58124      103.34985       39.27688
O        104.35797      103.51968       40.20405
H        102.83305      102.02356       37.72845
H        104.58600      101.86741       38.09454
H        103.35379      101.21142       39.24996
N        102.73933      104.34239       38.88587
C        102.71769      105.67207       39.48516
C        102.24162      105.60987       40.94096
O        101.17961      105.05627       41.18870
C        101.79725      106.57471       38.62926
C        101.93072      108.04011       38.91248
O        102.83048      108.49782       39.79594
O        101.25221      108.83422       38.28507
H        102.11701      104.15472       38.08339
H        103.74535      106.09639       39.41601
H        100.73946      106.25609       38.75139
H        102.07674      106.45830       37.55861
N        102.96413      106.19266       41.94522
C        102.57298      106.18645       43.36185
C        102.10422      107.55677       43.85484
O        101.60596      107.62088       44.97070
C        103.77620      105.75793       44.23764
C        104.21028      104.29173       44.10574
C        103.19648      103.34492       44.77339
C        103.70962      101.90249       44.90701
N        103.90661      101.25455       43.61175
H        103.81675      106.70050       41.68219
H        101.70544      105.51134       43.51839
H        103.56268      105.93955       45.31448
H        104.63589      106.41142       43.97240
H        105.17039      104.19202       44.65893
H        104.39466      104.03087       43.04241
H        102.22923      103.35652       44.22939
H        103.01574      103.70684       45.81020
H        102.95914      101.32214       45.48872
H        104.66253      101.89337       45.48307
H        104.20063      100.26433       43.77484
H        103.01131      101.25677       43.07170
H        104.65720      101.73601       43.06808
N        102.24062      108.68809       43.11012
C        101.78801      110.01497       43.53564
C        100.81390      110.63726       42.54005
O        100.37149      111.75116       42.78669
C        103.00725      110.93112       43.81502
C        103.98177      111.10639       42.67693
O        105.03556      111.68768       42.87652
O        103.74285      110.56318       41.47073
H        102.71277      108.61017       42.20817
H        101.23767      109.94576       44.50008
H        103.57122      110.46131       44.65089
H        102.66427      111.92944       44.16451
N        100.39928      109.97893       41.41590
C         99.43267      110.53124       40.47967
C         99.91917      111.73586       39.69255
O         99.12386      112.26144       38.92631
H        100.71975      109.01980       41.23354
H         98.51135      110.80149       41.03933
H         99.15783      109.74753       39.74086
N        101.18390      112.24069       39.80734
C        101.62102      113.43559       39.08576
C        101.62166      113.27793       37.56291
O        101.75749      114.28844       36.88771
C        103.00266      113.92391       39.59530
C        104.13870      112.94714       39.42938
O        105.37308      113.28995       39.84270
O        103.95732      111.84145       38.95258
H        101.83991      111.79938       40.46048
H        100.89240      114.24061       39.32937
H        102.91885      114.15114       40.67996
H        103.27185      114.86439       39.06896
N        101.49620      112.06360       36.95043
C        101.43931      111.88830       35.50346
C        102.66854      111.19830       34.94231
O        102.67612      110.91115       33.75332
H        101.45166      111.21147       37.52239
H        101.34334      112.86132       34.97521
H        100.53183      111.29217       35.26793
N        103.77053      110.96906       35.71035
C        105.02051      110.40244       35.21682
C        105.48512      109.22270       36.05724
O        104.92541      108.93239       37.10648
C        106.13350      111.50137       35.17688
C        106.21031      112.15365       33.79938
O        105.91405      112.51590       36.12630
H        103.75493      111.26789       36.68810
H        104.88059      109.98236       34.19526
H        107.14377      111.05999       35.33289
H        105.87392      112.09187       37.01666
H        105.24464      112.62221       33.52138
H        107.00819      112.92774       33.79926
H        106.48192      111.38660       33.04122
N        106.51148      108.46299       35.57762
C        107.07793      107.28167       36.21973
C        108.59528      107.46279       36.27189
O        109.18389      107.73164       35.23197
C        106.67978      106.01679       35.39468
C        105.12958      105.87996       35.34595
C        107.31921      104.74860       35.99766
C        104.62461      104.74761       34.44860
H        106.88998      108.71090       34.64864
H        106.67206      107.14593       37.24769
H        107.05719      106.13957       34.35446
H        104.68918      106.81220       34.93443
H        104.72884      105.73531       36.37392
H        108.42481      104.83347       36.01508
H        106.95683      104.58185       37.03470
H        107.08888      103.85280       35.38740
H        103.51351      104.75705       34.43899
H        104.98555      104.89284       33.40824
H        104.94417      103.75345       34.81817
N        109.30146      107.29402       37.42943
C        110.75438      107.48435       37.51911
C        111.47540      106.14375       37.58383
O        110.81653      105.11613       37.59964
C        111.11401      108.35093       38.75629
C        110.35780      109.67470       38.78819
O        110.81823      107.64654       39.93441
H        108.79717      106.98943       38.27273
H        111.12392      108.00067       36.60585
H        112.20598      108.57053       38.70821
H        111.46861      107.94105       40.62488
H        109.27776      109.46777       38.90908
H        110.68726      110.27335       39.66437
H        110.53235      110.25882       37.86170
N        112.84178      106.07238       37.60810
C        113.56122      104.79572       37.69260
C        113.35946      104.09397       39.03269
O        113.77641      102.95052       39.15594
C        115.08553      104.97248       37.48315
C        115.43167      105.51421       36.09758
O        115.61892      105.83080       38.46148
H        113.37890      106.94941       37.54141
H        113.17498      104.13278       36.88484
H        115.57476      103.96900       37.54136
H        115.96045      105.26076       39.19982
H        116.53607      105.58023       35.99636
H        115.04760      104.82846       35.31283
H        115.00410      106.52491       35.93966
N        112.74714      104.71026       40.08076
C        112.52894      104.08049       41.37283
C        111.11063      103.56111       41.43579
O        110.92101      102.41176       41.80950
C        112.85387      105.05903       42.52554
C        114.35435      105.41795       42.54439
C        114.80398      106.12896       43.83283
C        114.28196      107.56332       43.98979
N        114.74413      108.13548       45.25754
H        112.39328      105.66671       39.96746
H        113.19113      103.19546       41.50716
H        112.61302      104.53822       43.47811
H        112.22749      105.97610       42.46303
H        114.63280      106.01441       41.64773
H        114.92487      104.46468       42.51213
H        115.91523      106.17748       43.82447
H        114.49677      105.51520       44.70758
H        113.17169      107.58221       43.96881
H        114.66310      108.18146       43.14644
H        114.45056      109.13693       45.31709
H        114.32090      107.61216       46.05880
H        115.78732      108.08667       45.32498
N        110.06818      104.32586       41.01273
C        108.68718      103.85458       40.98553
C        108.58277      102.59295       40.14350
O        108.16525      101.57075       40.66982
C        107.73803      104.97381       40.49060
C        107.80567      106.17204       41.45882
C        106.83951      107.27380       41.16633
O        106.89948      108.01111       40.04137
O        106.02411      107.57695       42.02031
H        110.27752      105.26831       40.66254
H        108.37547      103.59836       42.02329
H        106.70035      104.58073       40.47910
H        107.99879      105.28103       39.45792
H        108.81341      106.62721       41.47302
H        107.58665      105.79265       42.48137
N        109.00870      102.57618       38.85075
C        109.04521      101.38030       38.03155
H        108.66176      100.48581       38.56613
H        108.44036      101.53585       37.11527
H        110.09724      101.17556       37.73572
H        109.36297      103.44281       38.43348
Ca       105.38399      109.67261       40.20200
O        107.42051      111.08164       38.59876
H        107.37820      110.35582       37.92582
H        107.94817      111.79516       38.16024
O        107.71613      110.84387       41.65457
H        108.67230      110.82773       41.90800
H        107.27352      110.25804       42.31891

Ca 1.0



