%chk=holoCaM-CaMKII.loop1.water2.frame318.chk
%nprocshared=20
%mem=10GB
%nosave
#b3lyp/svp scf=(tight,noincore,xqc) Test 
#IOP(5/87=12) Density=Current Pop=(MK,readradii) iop(6/33=2) iop(6/42=6)

holoCaM-CaMKII.loop1.water2.frame318 

   0  1 
C         42.88010       29.02818       59.41819
C         42.18035       27.87965       58.75503
O         41.59518       28.08974       57.71241
H         43.65111       29.43530       58.73035
H         42.14188       29.82273       59.65290
H         43.37734       28.71562       60.36020
N         42.23360       26.63166       59.29357
C         41.62881       25.41972       58.72623
C         40.11708       25.40383       59.00893
O         39.66052       24.60665       59.81498
C         42.39947       24.23440       59.36151
C         42.19348       22.83183       58.86691
O         42.24933       22.52129       57.55864
O         42.40041       21.93454       59.66623
H         42.80654       26.52960       60.14658
H         41.83525       25.36566       57.63474
H         42.24576       24.24741       60.46286
H         43.48158       24.42231       59.18351
N         39.28790       26.30754       58.40558
C         37.86119       26.47207       58.68877
C         37.00167       25.29682       58.24004
O         35.83570       25.27635       58.61110
C         37.35375       27.76715       58.00693
C         37.95449       29.02598       58.66362
C         37.63732       30.28418       57.84429
C         38.00077       31.59439       58.56703
N         39.41354       31.67240       58.94331
H         39.69272       26.95268       57.72859
H         37.73385       26.57815       59.78912
H         36.24753       27.85214       58.08394
H         37.61759       27.71989       56.92556
H         39.05790       28.94137       58.74924
H         37.52754       29.11336       59.68667
H         36.54823       30.32218       57.62723
H         38.18289       30.22472       56.87583
H         37.37221       31.70276       59.47858
H         37.75800       32.43844       57.88373
H         40.02619       31.50256       58.11361
H         39.60790       32.62907       59.31916
H         39.62738       30.98155       59.69807
N         37.48523       24.29369       57.45243
C         36.70685       23.10664       57.08880
C         37.31793       21.82760       57.67900
O         36.67928       20.78802       57.59351
C         36.43342       23.04877       55.56393
C         37.63665       23.05572       54.66046
O         37.48126       23.00173       53.45234
O         38.87924       23.14568       55.14851
H         38.45153       24.36804       57.11639
H         35.69840       23.16649       57.55666
H         35.81898       23.93456       55.28917
H         35.82835       22.14124       55.34372
N         38.48425       21.85021       58.39299
C         38.95147       20.75651       59.23141
C         39.38927       19.52395       58.48549
O         38.82319       18.46449       58.71380
H         39.02530       22.71687       58.45554
H         38.15164       20.50560       59.96119
H         39.82869       21.10669       59.81671
N         40.43731       19.58207       57.61880
C         40.98069       18.41706       56.92277
C         42.47060       18.17685       57.20438
O         42.98237       17.17485       56.72389
C         40.66749       18.52299       55.41235
C         41.19706       19.73694       54.69237
O         40.92927       19.89270       53.51283
O         41.93957       20.66319       55.31628
H         40.85495       20.50283       57.44813
H         40.46510       17.49665       57.27551
H         39.56142       18.54031       55.30686
H         41.04678       17.61606       54.89461
N         43.23082       19.02720       57.96004
C         44.64518       18.81460       58.25448
C         45.54586       19.80175       57.53131
O         46.74944       19.74613       57.73976
H         42.81221       19.88281       58.33818
H         44.97639       17.79838       57.94777
H         44.79454       18.89238       59.35315
N         45.04911       20.66405       56.59814
C         45.87195       21.49859       55.72961
C         45.33261       22.91740       55.63594
O         44.12572       23.11114       55.62700
C         45.93129       20.87783       54.30908
C         46.75485       19.58203       54.27640
O         44.64622       20.66183       53.78028
H         44.04451       20.64946       56.40561
H         46.92073       21.55095       56.09547
H         46.46023       21.58813       53.63678
H         44.24552       19.88307       54.24886
H         46.30593       18.79961       54.92311
H         46.80749       19.19778       53.23574
H         47.79009       19.78644       54.62438
N         46.19894       23.94787       55.41350
C         45.79155       25.32916       55.17637
C         46.13153       25.67123       53.73161
O         47.30126       25.64978       53.37280
C         46.54551       26.28842       56.14847
C         46.24966       25.95716       57.63148
C         46.20491       27.76437       55.85081
C         47.21276       26.67023       58.58826
H         47.20592       23.73350       55.35453
H         44.69649       25.44785       55.33216
H         47.63355       26.13562       55.97067
H         46.38685       24.87002       57.80865
H         45.19641       26.21652       57.88029
H         45.12699       27.96056       56.02680
H         46.80099       28.46053       56.47016
H         46.45076       28.01982       54.80558
H         47.13690       27.77305       58.52006
H         46.98522       26.38169       59.63463
H         48.25838       26.36731       58.36061
N         45.15007       25.99087       52.84219
C         45.42168       26.38975       51.46124
C         45.89702       27.83493       51.42654
O         45.92498       28.47347       52.46068
C         44.14026       26.25104       50.59209
C         43.62775       24.80984       50.56636
O         43.13161       27.08938       51.08625
H         44.17493       25.95800       53.16050
H         46.19593       25.71809       51.02867
H         44.38938       26.54765       49.54812
H         42.41150       27.11343       50.40383
H         43.32867       24.49388       51.58424
H         42.73537       24.74074       49.90860
H         44.40904       24.12418       50.17949
N         46.24567       28.43941       50.26000
C         46.50565       29.87820       50.16738
C         45.25159       30.67580       50.52339
O         45.36393       31.62143       51.29083
C         47.02962       30.26955       48.76493
C         48.47286       29.76841       48.57787
O         46.18238       29.75887       47.76665
H         46.27887       27.86561       49.40441
H         47.30357       30.17368       50.88764
H         47.05706       31.38144       48.69608
H         46.56077       30.03506       46.89149
H         49.13095       30.22544       49.35047
H         48.53537       28.66442       48.66540
H         48.86309       30.07741       47.58548
N         44.02109       30.32780       50.04090
C         42.78552       31.05032       50.36642
C         42.59551       31.17691       51.86798
O         42.46067       32.28723       52.36295
C         41.57012       30.34428       49.71188
C         40.23134       31.03581       50.03877
C         39.05668       30.53718       49.17994
C         38.72133       29.04720       49.35071
N         37.59395       28.67804       48.49171
H         43.95870       29.49477       49.43488
H         42.84846       32.07626       49.94094
H         41.51569       29.28595       50.04236
H         41.72988       30.35955       48.61211
H         40.33642       32.12252       49.83361
H         39.99138       30.90749       51.11791
H         39.29006       30.73793       48.11217
H         38.15795       31.13212       49.45465
H         38.46061       28.83905       50.41216
H         39.59769       28.42342       49.07312
H         37.38625       27.66010       48.60783
H         36.74383       29.22925       48.75217
H         37.83269       28.85918       47.48901
N         42.59831       30.07061       52.65003
C         42.44514       30.08766       54.09900
C         43.48947       30.97959       54.74853
O         43.12184       31.87589       55.49588
C         42.53439       28.64616       54.63647
C         41.29675       27.82999       54.21381
C         41.30395       26.43850       54.76499
O         42.19839       25.66071       54.48442
O         40.28255       26.02297       55.53212
H         42.74821       29.17054       52.18184
H         41.44505       30.49458       54.37360
H         42.58297       28.69137       55.73305
H         43.46883       28.15862       54.28139
H         41.23209       27.76082       53.10928
H         40.38253       28.34329       54.58511
N         44.80839       30.81630       54.48036
C         45.83461       31.66353       55.04263
H         46.82599       31.37096       54.63446
H         45.64184       32.72356       54.77132
H         45.85376       31.55409       56.14661
H         45.08999       30.08386       53.82905
Ca        40.96108       23.29550       55.91612
O         42.47055       22.22949       52.45192
H         43.04145       22.00791       51.67377
H         43.10356       22.54983       53.14212
O         40.39262       24.43105       52.40877
H         40.55908       24.65631       51.45964
H         39.81333       23.62985       52.37460

Ca 1.0



