%chk=holoCaM-CaMKII.loop1.water2.frame25.chk
%nprocshared=20
%mem=10GB
%nosave
#b3lyp/svp scf=(tight,noincore,xqc) Test 
#IOP(5/87=12) Density=Current Pop=(MK,readradii) iop(6/33=2) iop(6/42=6)

holoCaM-CaMKII.loop1.water2.frame25 

   0  1 
C         26.48663       56.96553       24.66956
C         25.60839       55.76772       24.47850
O         24.42565       55.91878       24.20992
H         27.32146       56.93113       23.93747
H         25.91310       57.90362       24.52033
H         26.90614       56.95516       25.69783
N         26.14058       54.52498       24.60343
C         25.37200       53.30078       24.41817
C         24.26114       53.23803       25.46430
O         24.59263       53.24044       26.64231
C         26.35080       52.10607       24.53947
C         25.77927       50.76975       24.19957
O         26.57340       49.68941       24.27824
O         24.62706       50.64803       23.82683
H         27.14723       54.45672       24.82764
H         24.94915       53.30354       23.38916
H         26.76389       52.06576       25.57148
H         27.19849       52.26527       23.83647
N         22.93024       53.20410       25.12004
C         21.85735       53.21956       26.11979
C         21.12756       51.88519       26.24602
O         20.34966       51.74281       27.17901
C         20.85606       54.38431       25.88235
C         19.74374       54.09577       24.84216
C         18.67248       55.20262       24.85933
C         17.39903       54.78081       24.10488
N         16.33830       55.77690       24.26956
H         22.67212       53.17989       24.12871
H         22.32160       53.40371       27.11170
H         21.40226       55.32335       25.64117
H         20.33323       54.54382       26.85041
H         19.22641       53.16248       25.14867
H         20.15311       53.94581       23.81975
H         19.08518       56.14661       24.44111
H         18.37311       55.38522       25.91422
H         17.03234       53.81443       24.52031
H         17.61938       54.63420       23.02518
H         16.10682       55.88875       25.28452
H         16.63716       56.69700       23.87431
H         15.47806       55.45128       23.77178
N         21.31614       50.87115       25.35438
C         20.69414       49.55019       25.47284
C         21.74930       48.47080       25.69598
O         21.37518       47.31349       25.82411
C         19.79401       49.24929       24.24857
C         20.48654       49.53386       22.95659
O         21.66696       48.96906       22.65464
O         20.04755       50.41227       22.22954
H         21.95318       51.02194       24.55934
H         20.03176       49.49941       26.36336
H         18.90352       49.91589       24.30157
H         19.42919       48.20114       24.27317
N         23.07517       48.77217       25.82317
C         24.09103       47.79389       26.16412
C         24.24790       46.71129       25.12419
O         24.10090       45.54558       25.46123
H         23.39303       49.74634       25.75002
H         23.84267       47.34787       27.15142
H         25.06856       48.31405       26.26721
N         24.58574       47.02718       23.84373
C         24.85176       46.03682       22.80164
C         26.28639       46.14588       22.27104
O         26.60273       45.49561       21.28462
C         23.78635       46.13514       21.68635
C         23.73719       47.42375       20.91259
O         24.57412       48.43963       21.18036
O         22.91178       47.55128       20.02324
H         24.67813       48.02280       23.60245
H         24.74756       45.00537       23.20440
H         22.78816       45.97474       22.15019
H         23.95799       45.30933       20.96224
N         27.22933       46.88868       22.92366
C         28.62704       46.98495       22.52453
C         28.89977       47.89286       21.33928
O         30.07174       48.08470       21.04207
H         26.98258       47.33761       23.81363
H         29.04765       45.96985       22.35724
H         29.18515       47.43852       23.37286
N         27.91031       48.50230       20.62639
C         28.16348       49.44745       19.53943
C         27.46017       50.78008       19.77594
O         26.64201       50.90330       20.68044
C         27.72063       48.84509       18.17037
C         28.67497       47.74027       17.72371
O         26.42121       48.30675       18.20774
H         26.93480       48.29480       20.85999
H         29.24811       49.68828       19.47914
H         27.76443       49.62995       17.38331
H         25.88359       48.82040       18.85800
H         28.35766       47.35747       16.72936
H         29.70516       48.14421       17.62407
H         28.67583       46.89952       18.44750
N         27.77337       51.83756       18.97475
C         27.15978       53.15995       19.03168
C         26.61526       53.47864       17.63998
O         27.35948       53.36868       16.67314
C         28.20315       54.22529       19.49590
C         28.72241       53.88422       20.92149
C         27.57775       55.63850       19.48475
C         29.84066       54.80866       21.41396
H         28.51819       51.70182       18.27188
H         26.33617       53.18609       19.77528
H         29.05899       54.21295       18.78560
H         29.13766       52.85485       20.92535
H         27.88110       53.91843       21.65014
H         27.20553       55.90199       18.47571
H         26.73661       55.69736       20.20665
H         28.32026       56.41771       19.74498
H         30.70350       54.77088       20.71599
H         29.49716       55.85716       21.51949
H         30.18132       54.47397       22.41657
N         25.34500       53.94077       17.47266
C         24.77190       54.33251       16.18731
C         24.71122       55.83905       16.10864
O         25.06979       56.50249       17.06593
C         23.34941       53.73192       16.00206
C         23.37524       52.21029       15.85008
O         22.48921       54.13195       17.04540
H         24.78803       54.13126       18.30976
H         25.42353       54.00233       15.34865
H         22.90719       54.10839       15.05621
H         22.60915       53.51318       17.81230
H         23.82856       51.75210       16.74549
H         22.33932       51.82695       15.72185
H         23.97045       51.92665       14.95682
N         24.29090       56.46039       14.97698
C         24.20587       57.91456       14.86592
C         23.20147       58.49266       15.85228
O         23.36645       59.63306       16.26151
C         23.83677       58.33889       13.42754
C         24.96435       57.97113       12.44856
O         22.62925       57.72197       13.05260
H         24.03231       55.87468       14.16833
H         25.20353       58.34785       15.10710
H         23.71137       59.44532       13.40665
H         22.42159       58.01307       12.12717
H         25.14256       56.87640       12.42104
H         24.70395       58.30949       11.42427
H         25.90609       58.47784       12.75038
N         22.11710       57.77207       16.24990
C         21.12142       58.27815       17.18895
C         21.75449       58.47750       18.55401
O         21.65927       59.55522       19.12373
C         19.92449       57.29697       17.30645
C         19.23941       56.95366       15.96353
C         18.73733       58.18239       15.19197
C         18.07533       57.76547       13.87191
N         17.61504       58.93600       13.12590
H         21.99649       56.82645       15.86300
H         20.72008       59.24801       16.82570
H         19.16879       57.74576       17.98861
H         20.26030       56.33773       17.75864
H         18.38035       56.28129       16.17885
H         19.93797       56.38739       15.31383
H         19.59156       58.84689       14.94467
H         18.00931       58.74172       15.81832
H         17.21083       57.09742       14.08097
H         18.81021       57.20515       13.25042
H         18.42405       59.55966       12.89977
H         17.17304       58.62044       12.23250
H         16.90813       59.46426       13.68699
N         22.43793       57.44804       19.11942
C         23.07756       57.48023       20.43284
C         24.11753       58.58676       20.49233
O         24.03501       59.42924       21.37491
C         23.69928       56.09219       20.73348
C         22.59426       55.01607       20.79737
C         23.09393       53.61511       20.94995
O         23.89918       53.13971       20.17520
O         22.48388       52.80557       21.81279
H         22.51676       56.58980       18.55545
H         22.31317       57.67716       21.21859
H         24.24644       56.11335       21.69721
H         24.42161       55.84079       19.92972
H         22.00631       55.00452       19.86230
H         21.88793       55.24896       21.62481
N         25.09849       58.66714       19.55380
C         26.09751       59.71341       19.50264
H         27.10823       59.25517       19.51943
H         25.98106       60.28045       18.55381
H         26.01196       60.42383       20.35020
H         25.12512       57.96726       18.81171
Ca        22.84503       50.60238       21.71725
O         21.09636       51.40557       19.38768
H         21.05066       50.43654       19.58710
H         20.64130       51.50060       18.51431
O         23.75444       49.79656       18.22723
H         24.13827       49.46228       17.37735
H         22.77950       49.77928       18.07309

Ca 1.0



