%chk=holoCaM.loop1.water2.frame396.chk
%nprocshared=20
%mem=10GB
%nosave
#b3lyp/svp scf=(tight,noincore,xqc) Test 
#IOP(5/87=12) Density=Current Pop=(MK,readradii) iop(6/33=2) iop(6/42=6)

holoCaM.loop1.water2.frame396 

   0  1 
C         84.63972       68.24935      103.85555
C         85.81117       68.79386      104.60994
O         86.16803       68.24269      105.63980
H         83.84899       69.02674      103.80089
H         84.95404       67.97000      102.82853
H         84.22728       67.35306      104.36564
N         86.47141       69.88572      104.13991
C         87.60168       70.48110      104.83720
C         87.14918       71.05530      106.17862
O         86.43730       72.04925      106.20630
C         88.24880       71.54750      103.93346
C         89.30865       72.33186      104.63098
O         89.19589       73.54152      104.70497
O         90.36345       71.71991      105.19492
H         86.16046       70.29156      103.24301
H         88.36534       69.68765      105.00963
H         87.46995       72.25931      103.58019
H         88.68729       71.04688      103.04190
N         87.51476       70.43315      107.33499
C         87.07566       70.84233      108.66685
C         87.97723       71.90626      109.30152
O         87.66628       72.30593      110.41535
C         86.98577       69.60699      109.61053
C         85.93428       68.58472      109.13208
C         85.66338       67.44735      110.13517
C         86.83703       66.47403      110.30285
N         86.49866       65.40195      111.23996
H         88.00753       69.54042      107.23882
H         86.04890       71.26509      108.59937
H         86.66820       69.95628      110.61715
H         87.98209       69.12688      109.71325
H         86.22436       68.15137      108.15432
H         84.97377       69.12802      109.00134
H         84.79590       66.86300      109.75690
H         85.38381       67.88137      111.11931
H         87.73775       67.00872      110.67280
H         87.05946       66.02406      109.31530
H         87.31400       64.75415      111.33143
H         86.28018       65.80136      112.18123
H         85.67683       64.85899      110.88709
N         89.09406       72.41255      108.69157
C         89.98988       73.37924      109.34396
C         90.06762       74.71502      108.61501
O         90.78233       75.59061      109.08501
C         91.40957       72.78662      109.40824
C         91.44640       71.48433      110.15225
O         91.79845       70.35147      109.51522
O         91.15910       71.44584      111.33775
H         89.34761       72.08495      107.74820
H         89.64777       73.60000      110.37857
H         92.10803       73.49391      109.90713
H         91.77165       72.63507      108.37005
N         89.39642       74.94652      107.45585
C         89.53486       76.16936      106.68246
C         90.95989       76.37990      106.21301
O         91.47086       77.48484      106.32367
H         88.77828       74.22003      107.07188
H         89.17041       77.04938      107.25544
H         88.90074       76.07047      105.77491
N         91.65602       75.34252      105.67290
C         92.98504       75.44394      105.08252
C         92.97064       74.94590      103.63107
O         94.03001       74.85066      103.02755
C         94.01416       74.71933      105.98039
C         93.81489       73.24741      106.18795
O         94.63788       72.59255      107.02851
O         92.92719       72.63755      105.61943
H         91.21612       74.41473      105.67960
H         93.32448       76.50296      105.05814
H         93.97960       75.20123      106.98187
H         95.03475       74.87066      105.56733
N         91.79160       74.68929      102.98364
C         91.68120       74.33605      101.57833
C         92.04260       72.90778      101.22090
O         91.91729       72.59496      100.04438
H         90.90107       74.86931      103.46194
H         92.27712       75.05218      100.97146
H         90.61692       74.45920      101.27853
N         92.48483       71.98377      102.12657
C         92.83499       70.61142      101.74203
C         92.08897       69.56019      102.55664
O         91.42375       69.88678      103.52836
C         94.36533       70.39879      101.84612
C         95.13211       71.21041      100.79370
O         94.83406       70.68903      103.13783
H         92.60860       72.26287      103.10897
H         92.54336       70.42388      100.68535
H         94.60155       69.33455      101.63346
H         94.86486       71.67637      103.24598
H         94.80600       70.90850       99.77546
H         94.95830       72.29954      100.91969
H         96.21984       71.00716      100.88801
N         92.13937       68.25342      102.16079
C         91.46869       67.14022      102.82976
C         92.51612       66.08512      103.19521
O         93.31889       65.70604      102.35297
C         90.32427       66.58040      101.93070
C         89.26148       67.69812      101.70740
C         89.66758       65.34831      102.58418
C         88.04628       67.27488      100.87980
H         92.66337       68.03018      101.29985
H         90.97329       67.48306      103.76183
H         90.75044       66.26133      100.95454
H         89.73842       68.55496      101.18641
H         88.88607       68.06121      102.69128
H         89.15670       65.64023      103.52025
H         88.91773       64.88747      101.91120
H         90.41495       64.55767      102.79814
H         87.37301       68.14839      100.74663
H         88.36331       66.90661       99.88284
H         87.45717       66.49146      101.40010
N         92.54380       65.56756      104.45452
C         93.54862       64.64444      104.98676
C         92.91295       63.30426      105.32995
O         91.77224       63.08367      104.96449
C         94.16420       65.29047      106.25231
C         94.92155       66.57729      105.91012
O         93.15837       65.50910      107.21110
H         91.79976       65.85727      105.10085
H         94.36314       64.45063      104.25478
H         94.92178       64.62891      106.71562
H         92.82955       66.44168      107.13394
H         94.23537       67.28920      105.41320
H         95.32531       67.03625      106.83812
H         95.76509       66.35543      105.22371
N         93.59006       62.35130      106.03311
C         92.99968       61.07185      106.42728
C         91.77521       61.29741      107.31103
O         90.70453       60.80081      106.99176
C         94.04436       60.20562      107.17996
C         93.51179       58.79922      107.47417
O         95.20411       60.08674      106.39481
H         94.56268       62.54347      106.31308
H         92.70376       60.52130      105.50589
H         94.29123       60.70798      108.14680
H         95.98045       60.10570      107.01478
H         92.59901       58.83831      108.10434
H         93.27222       58.27706      106.52276
H         94.28312       58.21167      108.01527
N         91.88171       62.04960      108.44507
C         90.79202       62.29264      109.39763
C         89.58519       63.03247      108.82387
O         88.62862       63.21806      109.56342
C         91.34851       63.04039      110.63994
C         91.87710       64.46393      110.34919
C         92.65313       65.01086      111.55904
C         93.23028       66.42494      111.35418
N         94.21600       66.48342      110.27386
H         92.81426       62.42884      108.66062
H         90.43117       61.30127      109.75027
H         92.18053       62.41949      111.03780
H         90.57164       63.10314      111.43451
H         91.02812       65.13673      110.10201
H         92.56663       64.43451      109.48811
H         93.49507       64.32155      111.79090
H         91.97454       65.03904      112.43809
H         93.73309       66.72439      112.29994
H         92.41115       67.15029      111.15448
H         94.96320       65.76447      110.40912
H         93.74867       66.34569      109.35696
H         94.65719       67.42981      110.26462
N         89.54116       63.47721      107.53613
C         88.42188       64.21672      106.97061
C         87.78066       63.37559      105.87711
O         86.60731       63.04934      105.99038
C         88.92394       65.59384      106.47918
C         89.70465       66.31832      107.59460
C         90.20022       67.67888      107.21989
O         90.88082       67.84906      106.22433
O         89.98361       68.70801      108.05392
H         90.34398       63.32604      106.92088
H         87.64593       64.40622      107.74219
H         88.06293       66.20337      106.12914
H         89.62427       65.44513      105.63830
H         90.59494       65.71290      107.84835
H         89.08551       66.41418      108.50455
N         88.51062       62.93040      104.81852
C         87.98532       62.02446      103.82047
H         87.13508       62.48969      103.28259
H         88.78218       61.77131      103.08665
H         87.65543       61.08014      104.30586
H         89.48814       63.21382      104.73121
Ca        92.20309       70.34555      107.28500
O         94.60732       69.42718      108.56884
H         94.51629       69.99105      109.37701
H         95.56958       69.20134      108.52590
O         94.72052       69.60768      105.69557
H         95.69360       69.61096      105.87291
H         94.47357       70.55816      105.62305

Ca 1.0



