%chk=holoCaM.loop1.water2.frame313.chk
%nprocshared=20
%mem=10GB
%nosave
#b3lyp/svp scf=(tight,noincore,xqc) Test 
#IOP(5/87=12) Density=Current Pop=(MK,readradii) iop(6/33=2) iop(6/42=6)

holoCaM.loop1.water2.frame313 

   0  1 
C        119.63339       24.93346       49.20647
C        119.59196       24.14059       47.94547
O        119.90556       22.95901       47.94637
H        120.37784       25.74731       49.06219
H        118.63847       25.38460       49.40004
H        119.94620       24.30669       50.06416
N        119.24786       24.77452       46.80107
C        119.43632       24.19929       45.49194
C        120.89510       24.42919       45.09401
O        121.35765       25.55704       45.20004
C        118.43715       24.85476       44.52853
C        118.66882       24.26368       43.20957
O        118.50391       22.93401       43.11008
O        119.11703       24.94227       42.30571
H        119.03209       25.78242       46.85331
H        119.21941       23.10408       45.50824
H        118.56739       25.95759       44.50107
H        117.39109       24.61713       44.82460
N        121.68636       23.39370       44.67528
C        123.13831       23.49970       44.51989
C        123.64884       23.35354       43.08102
O        124.82805       23.61304       42.88054
C        123.81190       22.44593       45.43249
C        123.48897       22.58033       46.93966
C        123.98433       23.91935       47.50583
C        123.90741       24.00207       49.03631
N        124.33748       25.32754       49.48827
H        121.25290       22.47482       44.53294
H        123.47165       24.51344       44.82661
H        124.91533       22.49737       45.31549
H        123.49197       21.43705       45.09281
H        124.00714       21.74749       47.46384
H        122.39874       22.46730       47.12784
H        123.37475       24.73945       47.07457
H        125.04757       24.06086       47.21576
H        124.57339       23.22778       49.48089
H        122.86891       23.81459       49.38778
H        125.30248       25.53582       49.14089
H        123.67616       26.05474       49.12951
H        124.34087       25.36069       50.53286
N        122.85485       22.97742       42.03487
C        123.29482       23.00422       40.62748
C        122.39219       23.90558       39.76674
O        122.64253       24.01851       38.57503
C        123.48770       21.58368       40.02590
C        122.31196       20.66743       40.05133
O        121.18554       21.03449       40.64918
O        122.39837       19.54829       39.57592
H        121.88663       22.70169       42.24043
H        124.30999       23.45442       40.55329
H        124.30275       21.07111       40.57982
H        123.80709       21.68745       38.96600
N        121.39710       24.65883       40.32071
C        120.65832       25.69695       39.61363
C        119.48168       25.23974       38.76935
O        119.41176       25.62497       37.61188
H        121.27150       24.63326       41.33825
H        121.36207       26.32843       39.02808
H        120.21179       26.36745       40.37877
N        118.46974       24.50011       39.30945
C        117.18491       24.24765       38.64862
C        115.96687       24.58751       39.53532
O        114.85048       24.43202       39.05981
C        117.10887       22.78127       38.18070
C        117.50464       21.80472       39.24162
O        116.90281       21.82668       40.43946
O        118.40584       21.00843       39.03149
H        118.61267       24.09280       40.23825
H        117.08561       24.87792       37.73925
H        117.79424       22.64183       37.31881
H        116.07804       22.55336       37.83374
N        116.08220       25.03003       40.81955
C        114.95433       25.25317       41.71487
C        114.19653       23.97088       41.99727
O        112.97583       23.96655       41.96628
H        117.00826       25.19932       41.21735
H        114.28248       26.05425       41.34031
H        115.36539       25.59469       42.69352
N        114.89385       22.86793       42.37368
C        114.31732       21.62816       42.90158
C        115.36675       20.91883       43.73717
O        116.55161       21.01653       43.45030
C        113.68238       20.63980       41.87531
C        112.35398       21.08247       41.26628
O        114.57396       20.29504       40.85867
H        115.91432       22.99545       42.41982
H        113.53022       21.91607       43.62952
H        113.43896       19.70707       42.43413
H        114.67972       21.09213       40.28022
H        112.48772       21.96486       40.61227
H        111.94885       20.25325       40.64404
H        111.62482       21.30140       42.07280
N        114.98582       20.23484       44.84857
C        115.93202       19.68497       45.80180
C        115.90741       18.16164       45.74057
O        114.93692       17.53793       46.14434
C        115.68254       20.32648       47.20956
C        116.22021       21.79441       47.20702
C        116.31547       19.50222       48.33873
C        116.10836       22.52912       48.54810
H        113.98000       20.12795       45.04729
H        116.96099       19.96888       45.52878
H        114.58905       20.33266       47.41804
H        115.66710       22.38381       46.44368
H        117.29761       21.80148       46.92658
H        117.40941       19.43606       48.21114
H        116.07821       19.93945       49.32917
H        115.87455       18.48509       48.36107
H        115.05718       22.55132       48.90063
H        116.75194       22.05344       49.31787
H        116.47291       23.57275       48.43364
N        116.99693       17.51138       45.22577
C        117.21554       16.06191       45.23541
C        117.50038       15.59316       46.65063
O        117.48356       16.41095       47.54401
C        118.43356       15.69248       44.33189
C        118.13387       15.93951       42.85263
O        119.60927       16.35721       44.73868
H        117.73900       18.09567       44.82486
H        116.32024       15.53700       44.84017
H        118.63517       14.60519       44.40087
H        119.67468       17.22920       44.26768
H        117.23798       15.36586       42.53785
H        117.94825       17.01359       42.68705
H        118.99689       15.61152       42.23627
N        117.78519       14.29240       46.93837
C        118.23619       13.85492       48.26323
C        119.62612       14.38982       48.59028
O        119.83917       14.83005       49.71123
C        118.22780       12.31696       48.39766
C        116.77883       11.79070       48.42456
O        119.02067       11.71185       47.39767
H        117.70736       13.59480       46.18425
H        117.53842       14.23042       49.04542
H        118.66190       12.05510       49.38771
H        118.45875       11.11509       46.83667
H        116.19795       12.32146       49.21088
H        116.27484       11.94588       47.44809
H        116.77681       10.70964       48.67441
N        120.61510       14.39251       47.65255
C        121.97077       14.90041       47.88603
C        121.91138       16.32505       48.42121
O        122.50319       16.62240       49.44858
C        122.74439       14.84761       46.54657
C        124.24268       15.18295       46.61003
C        125.05313       14.12325       47.37676
C        126.55712       14.28539       47.10437
N        127.32862       13.19122       47.69582
H        120.37575       14.04741       46.70960
H        122.48088       14.24512       48.62397
H        122.26029       15.54146       45.82428
H        122.65731       13.82400       46.11825
H        124.42193       16.20114       47.01818
H        124.59082       15.17365       45.55330
H        124.75647       13.11919       47.00333
H        124.84066       14.17309       48.46695
H        126.92263       15.26196       47.49236
H        126.71685       14.26544       46.00317
H        128.31379       13.24482       47.34843
H        127.32721       13.26594       48.73808
H        126.93134       12.26734       47.40594
N        121.15083       17.23955       47.76907
C        120.93221       18.62208       48.18619
C        120.24568       18.66300       49.55004
O        120.74914       19.30170       50.46295
C        120.11993       19.33171       47.06383
C        121.02264       19.44344       45.80800
C        120.38410       19.95913       44.55374
O        119.06402       20.16883       44.46627
O        121.08349       20.15473       43.57315
H        120.66030       16.90704       46.92770
H        121.90282       19.15843       48.27641
H        119.81979       20.35434       47.37667
H        119.19555       18.75208       46.84464
H        121.45159       18.45870       45.53377
H        121.85709       20.11838       46.07575
N        119.09904       17.97161       49.75441
C        118.37978       17.89683       51.00664
H        117.43923       17.31961       50.85327
H        118.98696       17.36354       51.76778
H        118.10965       18.91119       51.36292
H        118.73074       17.45064       48.97292
Ca       119.31435       21.56909       41.61256
O        117.22583       18.71414       41.11721
H        117.38765       17.89399       40.58926
H        116.56421       19.19415       40.57463
O        119.91071       18.03535       41.31008
H        120.43855       18.68255       40.79070
H        119.97720       17.20028       40.78483

Ca 1.0



