%chk=holoCaM-CaMKII.loop1.water2.frame149.chk
%nprocshared=20
%mem=10GB
%nosave
#b3lyp/svp scf=(tight,noincore,xqc) Test 
#IOP(5/87=12) Density=Current Pop=(MK,readradii) iop(6/33=2) iop(6/42=6)

holoCaM-CaMKII.loop1.water2.frame149 

   0  1 
C        106.29601      112.46996       57.49009
C        106.41714      113.88976       57.03487
O        106.76789      114.74798       57.83152
H        105.25650      112.11509       57.33815
H        106.99160      111.83774       56.89720
H        106.56258      112.37949       58.56434
N        106.18451      114.20416       55.73308
C        106.38971      115.54596       55.21504
C        105.31661      116.49904       55.72793
O        104.14013      116.20527       55.56249
C        106.39012      115.53360       53.67660
C        107.04231      116.76883       53.12296
O        107.09491      116.91365       51.91578
O        107.64062      117.66121       53.95127
H        105.93541      113.44316       55.08112
H        107.41084      115.85686       55.53143
H        105.35391      115.40975       53.28920
H        107.00041      114.68137       53.30584
N        105.65279      117.67521       56.32835
C        104.68881      118.61662       56.88451
C        104.61488      119.92164       56.09889
O        103.87669      120.79697       56.52711
C        105.04136      118.88761       58.36726
C        105.10834      117.61629       59.23590
C        103.78736      116.83299       59.24590
C        103.87308      115.58856       60.13448
N        102.61701      114.83989       60.08950
H        106.64396      117.91998       56.40554
H        103.65921      118.20553       56.83808
H        104.28586      119.57497       58.80704
H        106.03227      119.39177       58.42070
H        105.36062      117.92073       60.27542
H        105.92591      116.96224       58.86853
H        103.54686      116.49120       58.21960
H        102.96944      117.49226       59.60960
H        104.08855      115.89107       61.18303
H        104.69929      114.93348       59.77863
H        102.41813      114.53208       59.10926
H        102.69774      113.99395       60.69788
H        101.83015      115.43572       60.43582
N        105.27610      120.10710       54.91451
C        105.13758      121.32410       54.11218
C        104.41907      121.05072       52.79400
O        104.17260      122.00535       52.06715
C        106.52135      121.92626       53.79480
C        107.35084      122.21886       55.01362
O        107.68985      121.31720       55.76364
O        107.76709      123.47573       55.25734
H        105.86524      119.35455       54.53803
H        104.53739      122.08231       54.66020
H        106.38495      122.86909       53.22034
H        107.07714      121.22234       53.14785
N        104.07166      119.79207       52.39417
C        103.44762      119.50824       51.11104
C        104.33508      119.95160       49.96777
O        103.89633      120.71285       49.11908
H        104.27477      118.98067       52.99583
H        102.45212      119.99830       51.05267
H        103.29717      118.40916       51.02671
N        105.62189      119.51845       49.92014
C        106.59919      119.88418       48.89154
C        107.17780      118.63206       48.21324
O        108.06808      118.77582       47.38690
C        107.69331      120.78950       49.53662
C        108.42286      120.11759       50.65955
O        109.12657      120.78490       51.58184
O        108.27074      118.93152       50.84687
H        105.92763      118.91075       50.69208
H        106.12190      120.50169       48.10025
H        107.16506      121.66944       49.96508
H        108.42342      121.16136       48.78700
N        106.69117      117.37737       48.47823
C        107.14748      116.16448       47.81088
C        108.48375      115.62043       48.28754
O        108.89038      114.59511       47.75832
H        105.88910      117.26377       49.11278
H        107.16425      116.33430       46.71195
H        106.40698      115.35955       48.00897
N        109.22566      116.22573       49.25907
C        110.52904      115.73995       49.70831
C        110.59737      115.58924       51.22739
O        109.88046      116.27387       51.94314
C        111.64356      116.69202       49.21334
C        111.69621      116.75782       47.67842
O        111.49871      117.98099       49.75731
H        108.87961      117.09293       49.66395
H        110.73555      114.74053       49.26545
H        112.62349      116.29212       49.55274
H        110.72549      118.42232       49.31758
H        110.74800      117.16236       47.26318
H        112.52776      117.41872       47.35702
H        111.86349      115.74371       47.25780
N        111.48591      114.71310       51.77957
C        111.67843      114.49586       53.21442
C        113.11619      114.85568       53.57496
O        114.03650      114.46654       52.86796
C        111.32426      113.02128       53.58708
C        109.80331      112.78676       53.36621
C        111.70680      112.70342       55.05116
C        109.35517      111.33656       53.56429
H        112.06903      114.15104       51.13946
H        111.00335      115.14325       53.81712
H        111.90705      112.34048       52.92817
H        109.53403      113.06502       52.32589
H        109.22063      113.43771       54.05702
H        111.15292      113.35757       55.75653
H        111.50036      111.64557       55.30662
H        112.79497      112.83937       55.21306
H        109.51769      110.98864       54.60384
H        108.26623      111.25920       53.35927
H        109.89701      110.67044       52.86067
N        113.37141      115.55287       54.71818
C        114.69881      115.96742       55.17032
C        115.12790      115.13252       56.36631
O        114.34551      114.32140       56.83572
C        114.64473      117.46680       55.58543
C        114.30654      118.37527       54.40439
O        113.67016      117.62823       56.58830
H        112.57725      115.76214       55.33768
H        115.45486      115.81032       54.36981
H        115.63720      117.77241       55.98548
H        113.65944      118.58301       56.85871
H        114.28232      119.43497       54.74256
H        115.07103      118.27932       53.60778
H        113.30877      118.10938       54.00575
N        116.36563      115.27830       56.92642
C        116.73544      114.61587       58.18042
C        116.06720      115.28454       59.38409
O        116.21606      114.77795       60.48641
C        118.26550      114.62157       58.40709
C        119.00841      113.78995       57.36256
O        118.75458      115.94076       58.39605
H        117.04411      115.90682       56.46868
H        116.41216      113.55035       58.13442
H        118.47306      114.12937       59.38977
H        119.15522      116.12089       59.28607
H        118.65201      112.73732       57.39277
H        118.85519      114.19671       56.34231
H        120.09518      113.79364       57.59293
N        115.31893      116.41909       59.25002
C        114.66230      117.10883       60.35289
C        113.16753      116.78278       60.36779
O        112.46324      117.23850       61.25771
C        114.95989      118.61243       60.18739
C        114.62530      119.48393       61.40254
C        114.99284      120.94234       61.09523
C        114.83353      121.84362       62.32254
N        115.17383      123.22745       61.99093
H        115.17547      116.82219       58.32032
H        115.08708      116.75645       61.31786
H        114.43175      118.98890       59.28283
H        116.05471      118.71933       60.01434
H        115.22205      119.12081       62.26795
H        113.54749      119.42987       61.65863
H        114.34403      121.31230       60.27025
H        116.05321      120.99657       60.76313
H        115.51158      121.48253       63.12815
H        113.78642      121.79924       62.69439
H        114.51169      123.59477       61.26919
H        115.09945      123.81618       62.85131
H        116.15354      123.28284       61.62760
N        112.63617      115.92789       59.44698
C        111.26955      115.43305       59.44016
C        111.33576      113.95333       59.77491
O        110.73190      113.54391       60.75562
C        110.62639      115.71083       58.06366
C        110.51906      117.22665       57.82230
C        110.00351      117.56981       56.45824
O        108.93200      118.36679       56.33688
O        110.59097      117.20031       55.45596
H        113.24167      115.54273       58.71510
H        110.65052      115.93138       60.21998
H        109.61187      115.25848       58.01400
H        111.25144      115.24938       57.26978
H        111.51550      117.69647       57.92387
H        109.84797      117.67220       58.58888
N        112.13029      113.11114       59.05246
C        112.38081      111.73008       59.40611
H        113.46610      111.60873       59.62049
H        111.81631      111.41301       60.30652
H        112.11364      111.07305       58.55417
H        112.63339      113.46913       58.23522
Ca       108.88968      119.47136       53.39452
O        111.93300      119.49200       52.50424
H        112.12217      120.41823       52.21329
H        111.18155      119.19451       51.93614
O        111.17761      120.31342       55.43459
H        112.03524      120.77818       55.26877
H        110.48714      121.01269       55.31514

Ca 1.0



