%chk=holoCaM-CaMKII.loop1.water2.frame374.chk
%nprocshared=20
%mem=10GB
%nosave
#b3lyp/svp scf=(tight,noincore,xqc) Test 
#IOP(5/87=12) Density=Current Pop=(MK,readradii) iop(6/33=2) iop(6/42=6)

holoCaM-CaMKII.loop1.water2.frame374 

   0  1 
C         58.07956       83.62916       48.43975
C         59.15684       84.65081       48.64349
O         58.85209       85.82769       48.66346
H         57.08965       84.11919       48.32074
H         58.29941       83.03332       47.52985
H         58.03937       82.95360       49.32069
N         60.44276       84.24616       48.82630
C         61.59677       85.11405       49.08245
C         61.92909       86.02626       47.88697
O         62.86647       85.74203       47.15369
C         62.78174       84.19425       49.47303
C         64.02851       84.94397       49.81138
O         64.01980       85.87492       50.77924
O         65.06351       84.69192       49.22112
H         60.59884       83.22476       48.82455
H         61.40099       85.74699       49.97486
H         62.99555       83.47424       48.65172
H         62.49264       83.61036       50.37450
N         61.21019       87.16578       47.65102
C         61.44491       88.06457       46.51977
C         62.74954       88.85625       46.59853
O         63.05786       89.52726       45.62251
C         60.30443       89.11093       46.41311
C         58.90073       88.55103       46.12875
C         58.84284       87.78352       44.79817
C         57.41003       87.52096       44.30982
N         56.61949       86.73674       45.25774
H         60.44291       87.40003       48.28728
H         61.47241       87.45541       45.59209
H         60.53337       89.81975       45.58699
H         60.26605       89.70171       47.35662
H         58.22068       89.42871       46.06699
H         58.55032       87.90574       46.96088
H         59.38905       86.82104       44.89788
H         59.33902       88.38932       44.00871
H         57.47267       86.97351       43.34312
H         56.90132       88.49212       44.11841
H         57.10077       85.83467       45.47503
H         56.45757       87.28074       46.13523
H         55.68900       86.53257       44.82628
N         63.52988       88.89053       47.71539
C         64.73106       89.72839       47.82600
C         66.01054       88.91420       48.02087
O         67.07580       89.51345       48.07391
C         64.54337       90.83118       48.90123
C         64.24628       90.35194       50.29528
O         64.16068       91.15856       51.20629
O         64.07302       89.04594       50.54448
H         63.23983       88.32771       48.52245
H         64.89922       90.28251       46.87684
H         63.70754       91.49547       48.59164
H         65.46847       91.44811       48.93122
N         66.00244       87.55211       48.04598
C         67.20905       86.73893       48.03880
C         68.05804       86.85732       49.28464
O         69.24726       87.11136       49.15866
H         65.10870       87.04849       47.97718
H         67.81150       86.98002       47.13534
H         66.91556       85.67408       47.94574
N         67.52598       86.62967       50.51854
C         68.32037       86.54809       51.74643
C         68.11170       85.21232       52.46360
O         68.62017       85.05138       53.56420
C         68.07059       87.78006       52.63999
C         66.67412       87.99513       53.13103
O         65.70096       87.09422       52.93374
O         66.39712       89.06074       53.65707
H         66.50973       86.48433       50.58687
H         69.40552       86.60518       51.50991
H         68.33424       88.66719       52.02147
H         68.75280       87.76735       53.51637
N         67.44663       84.17779       51.86507
C         67.31271       82.85106       52.44786
C         66.24716       82.72685       53.51724
O         66.03508       81.60822       53.96632
H         67.10423       84.28251       50.90088
H         68.29936       82.49471       52.81560
H         66.99441       82.15929       51.63734
N         65.51433       83.78817       53.95920
C         64.40809       83.66167       54.90595
C         63.11879       84.21339       54.31121
O         63.14104       84.82623       53.25173
C         64.75365       84.37222       56.24251
C         65.79925       83.57676       57.02586
O         65.25172       85.66720       56.02244
H         65.72721       84.72719       53.60206
H         64.19924       82.59051       55.12387
H         63.85574       84.42572       56.89806
H         64.58724       86.14701       55.46880
H         66.74032       83.47146       56.44715
H         66.02322       84.09238       57.98434
H         65.40411       82.56535       57.26479
N         61.93519       83.97395       54.94267
C         60.62957       84.42163       54.46335
C         59.95364       85.20021       55.58218
O         59.94257       84.71934       56.70904
C         59.75904       83.20388       54.03193
C         60.50277       82.35546       52.96408
C         58.40259       83.69955       53.47898
C         59.76110       81.07748       52.56448
H         61.95359       83.39832       55.80029
H         60.73650       85.06643       53.56305
H         59.57625       82.56345       54.92333
H         61.48267       82.03067       53.37356
H         60.69311       82.96649       52.05450
H         57.85686       84.29872       54.23476
H         58.55830       84.32910       52.57508
H         57.73491       82.85705       53.21479
H         60.38244       80.50065       51.84745
H         59.57627       80.44614       53.45958
H         58.79835       81.29983       52.06309
N         59.32056       86.38184       55.33724
C         58.68357       87.18089       56.38199
C         57.17066       87.13300       56.26543
O         56.64196       86.52839       55.34257
C         59.17526       88.65752       56.32247
C         60.69538       88.78178       56.40481
O         58.69462       89.31441       55.17667
H         59.25940       86.70836       54.36561
H         58.94107       86.77024       57.38298
H         58.77116       89.20764       57.19724
H         59.16944       88.94590       54.39083
H         60.98403       89.85509       56.38611
H         61.07250       88.32339       57.34193
H         61.15836       88.27683       55.53258
N         56.41204       87.78206       57.19056
C         54.95686       87.89755       57.13569
C         54.53449       88.57296       55.84395
O         53.63853       88.08034       55.17478
C         54.42771       88.71220       58.34676
C         54.64858       87.96180       59.66742
O         55.05545       89.96953       58.39866
H         56.90754       88.25565       57.96020
H         54.48698       86.88873       57.17778
H         53.32946       88.84901       58.21176
H         54.55465       90.52075       59.05442
H         55.72639       87.78858       59.86451
H         54.23177       88.55384       60.50935
H         54.12602       86.98233       59.63925
N         55.16683       89.70405       55.43086
C         54.84307       90.42841       54.20783
C         54.97805       89.52768       52.98671
O         54.02792       89.41802       52.22406
C         55.76588       91.66632       54.12044
C         55.41605       92.64182       52.98927
C         56.31553       93.88855       53.08993
C         56.04711       94.94596       52.00737
N         54.70312       95.51930       52.10437
H         55.93312       90.06392       56.02044
H         53.79456       90.79557       54.27976
H         56.82767       91.34583       54.02973
H         55.65568       92.22467       55.07734
H         54.35235       92.93807       53.10133
H         55.55579       92.15016       52.00238
H         57.37641       93.56758       52.99831
H         56.18598       94.36407       54.08780
H         56.20089       94.50611       50.99812
H         56.79029       95.76392       52.14224
H         53.97656       94.79957       51.89389
H         54.54726       95.91839       53.05878
H         54.61238       96.28826       51.40175
N         56.13191       88.84089       52.75030
C         56.34191       87.99506       51.57356
C         55.38719       86.80844       51.50366
O         55.25301       86.24100       50.42749
C         57.79383       87.46788       51.53603
C         58.81551       88.60653       51.36779
C         60.23287       88.11061       51.41951
O         60.99141       88.32318       50.49000
O         60.69544       87.48109       52.51380
H         56.89504       88.94782       53.43051
H         56.16343       88.61998       50.66994
H         57.91359       86.76534       50.69041
H         57.98491       86.90111       52.47197
H         58.69913       89.35702       52.17132
H         58.63047       89.11475       50.39633
N         54.71730       86.34877       52.59529
C         53.80220       85.22936       52.52357
H         52.95433       85.47819       51.85029
H         54.32621       84.32710       52.14180
H         53.39799       85.00390       53.53357
H         54.87104       86.78547       53.50994
Ca        63.77026       88.11204       52.54705
O         61.87708       90.29925       53.49997
H         60.89110       90.32172       53.42842
H         62.18247       90.94078       52.81260
O         63.64947       88.50006       55.53434
H         63.53956       88.06804       56.41857
H         64.60491       88.74770       55.49742

Ca 1.0



