%chk=holoCaM.loop3.water2.frame371.chk
%nprocshared=20
%mem=10GB
%nosave
#b3lyp/svp scf=(tight,noincore,xqc) Test 
#IOP(5/87=12) Density=Current Pop=(MK,readradii) iop(6/33=2) iop(6/42=6)

holoCaM.loop3.water2.frame371 

   0  1 
C         12.85575        7.70675       47.40549
C         14.14448        6.95370       47.30362
O         15.04333        7.42060       46.61689
H         12.13346        7.18380       48.06594
H         13.06033        8.71150       47.83380
H         12.41083        7.82219       46.39661
N         14.33167        5.79633       47.99831
C         15.61572        5.12105       48.00241
C         15.91604        4.51726       46.62827
O         15.15740        3.68230       46.15579
C         15.67642        4.03988       49.09994
C         17.09871        3.63447       49.36551
O         17.33766        2.71121       50.11832
O         18.11134        4.31264       48.79345
H         13.57281        5.44235       48.60106
H         16.36374        5.89587       48.28301
H         15.06489        3.16266       48.79231
H         15.27300        4.42961       50.05917
N         17.01290        4.91834       45.93299
C         17.37047        4.45866       44.59439
C         17.65828        2.95885       44.54366
O         17.12558        2.30264       43.65950
C         18.59935        5.24249       44.06207
C         18.31871        6.75576       43.91212
C         19.53486        7.50155       43.34123
C         19.25636        9.00807       43.19085
N         20.42004        9.70366       42.64059
H         17.61517        5.61801       46.37398
H         16.53484        4.68217       43.89260
H         18.86094        4.84775       43.05488
H         19.46959        5.08358       44.73508
H         18.05967        7.19972       44.89425
H         17.45324        6.90148       43.22964
H         19.78632        7.08023       42.34381
H         20.40523        7.35814       44.01873
H         19.00420        9.45168       44.17697
H         18.38444        9.16505       42.51865
H         20.21411       10.72751       42.58433
H         21.25299        9.56154       43.25720
H         20.62811        9.34710       41.67976
N         18.51381        2.35809       45.42664
C         18.95987        0.95921       45.30644
C         18.47178        0.03742       46.42946
O         18.74719       -1.15208       46.34674
C         20.50945        0.93087       45.17953
C         21.22730        1.48095       46.38809
O         22.42543        1.70359       46.35765
O         20.53622        1.69909       47.51162
H         18.89271        2.93776       46.18791
H         18.55075        0.52155       44.36866
H         20.77471        1.56411       44.30676
H         20.87556       -0.10011       44.98303
N         17.70995        0.48015       47.47244
C         17.12060       -0.42116       48.45870
C         18.01739       -0.80151       49.62919
O         17.53335       -1.51976       50.49327
H         17.42505        1.46832       47.50242
H         16.73653       -1.33478       47.95168
H         16.23654        0.08746       48.89888
N         19.30409       -0.36294       49.76212
C         20.15345       -0.70618       50.90647
C         19.68955       -0.08123       52.23365
O         20.31736       -0.35495       53.24648
C         21.64611       -0.37355       50.62230
C         22.00459        1.08790       50.50977
N         23.29018        1.45562       50.30241
O         21.14856        1.94552       50.61463
H         19.70702        0.19257       49.00822
H         20.12219       -1.81219       51.02006
H         21.94891       -0.87908       49.67920
H         22.25935       -0.79870       51.44552
H         24.03316        0.74729       50.21520
H         23.54673        2.45193       50.23680
N         18.60997        0.75370       52.31417
C         18.08063        1.27600       53.56621
C         18.59044        2.65662       53.93251
O         18.16421        3.15156       54.96839
H         18.06507        0.95643       51.47492
H         18.28737        0.56646       54.39649
H         16.97395        1.33503       53.47611
N         19.50604        3.33394       53.17924
C         20.06345        4.63168       53.56192
C         19.91409        5.66579       52.46181
O         19.67422        5.30253       51.31597
C         21.56335        4.45112       53.86532
C         21.76838        3.46195       54.98451
C         22.36416        2.21395       54.73465
C         21.34888        3.77551       56.28718
C         22.52723        1.29147       55.77233
C         21.51982        2.85528       57.32394
C         22.10684        1.60754       57.06892
O         22.26986        0.70722       58.05890
H         19.86813        2.89391       52.32780
H         19.54522        5.02165       54.46531
H         22.04199        5.41635       54.13984
H         22.05726        4.08387       52.93667
H         22.68892        1.94751       53.73601
H         20.89143        4.73385       56.49923
H         22.97782        0.32853       55.56723
H         21.19264        3.11263       58.32327
H         21.98966        0.88693       58.96779
N         20.04250        6.99417       52.75458
C         20.00648        8.05710       51.75443
C         21.20094        8.98253       51.96607
O         21.24723        9.67724       52.97357
C         18.64618        8.82306       51.80742
C         17.49582        7.85779       51.40206
C         18.66889       10.06251       50.88882
C         16.09735        8.47617       51.44881
H         20.15846        7.26848       53.74386
H         20.08494        7.61748       50.74118
H         18.47601        9.18188       52.84689
H         17.48773        6.98986       52.09402
H         17.67087        7.47679       50.37168
H         19.46183       10.76929       51.20025
H         18.84441        9.76834       49.83758
H         17.72431       10.63668       50.95567
H         15.87677        8.85600       52.46796
H         15.98896        9.29705       50.71154
H         15.34692        7.70100       51.18414
N         22.20875        9.03890       51.04887
C         23.34863        9.95165       51.15190
C         22.93708       11.38813       50.84720
O         21.78557       11.62594       50.52673
C         24.45061        9.52365       50.15979
O         24.00669        9.63268       48.83080
H         22.17680        8.38216       50.25701
H         23.77942        9.87983       52.17470
H         24.77517        8.48215       50.39315
H         25.35469       10.15656       50.27600
H         23.85720        8.71257       48.49070
N         23.85073       12.40012       50.89018
C         23.55684       13.76034       50.44049
C         23.31841       13.77547       48.93743
O         22.28531       14.26397       48.50034
C         24.72081       14.69839       50.77400
H         24.80222       12.18734       51.22547
H         22.66556       14.15294       50.98107
H         24.88280       14.71636       51.87252
H         25.65898       14.37104       50.27911
H         24.48009       15.73155       50.44122
N         24.24003       13.22433       48.08834
C         24.10435       13.17605       46.62781
C         22.91759       12.34360       46.13484
O         22.71316       12.27557       44.93052
C         25.39137       12.60349       46.01646
H         25.09493       12.82800       48.50915
H         23.98262       14.21622       46.25378
H         26.26332       13.22023       46.32157
H         25.55272       11.55914       46.36267
H         25.33807       12.60897       44.90670
N         22.08072       11.71039       46.99853
C         20.91086       10.94043       46.61880
C         19.67309       11.76477       46.92665
O         18.86319       11.96517       46.03172
C         20.96942        9.60500       47.37978
C         19.73019        8.73268       47.19882
C         19.86712        7.43043       47.92714
O         18.90932        6.69017       48.00008
O         21.02715        7.05921       48.49892
H         22.24908       11.78366       48.00428
H         20.89999       10.71774       45.52831
H         21.07953        9.80419       48.46851
H         21.86778        9.05137       47.02779
H         19.55601        8.51647       46.13246
H         18.84834        9.27352       47.60071
N         19.48353       12.32320       48.15224
C         18.35283       13.17101       48.45317
H         17.41059       12.59261       48.36559
H         18.44281       13.56267       49.48927
H         18.33170       14.03529       47.75444
H         20.17901       12.17855       48.88951
Ca        20.20272        3.57594       48.64481
O         22.75066        5.08679       49.81079
H         23.30227        5.58365       49.15540
H         23.29665        5.07329       50.63624
O         21.67557        4.90432       46.39593
H         22.51664        4.39634       46.51470
H         21.93061        5.68204       45.83957

Ca 1.0



