%chk=holoCaM-CaMKII.loop1.water2.frame18.chk
%nprocshared=20
%mem=10GB
%nosave
#b3lyp/svp scf=(tight,noincore,xqc) Test 
#IOP(5/87=12) Density=Current Pop=(MK,readradii) iop(6/33=2) iop(6/42=6)

holoCaM-CaMKII.loop1.water2.frame18 

   0  1 
C         40.42104       54.15771       13.02027
C         41.55087       53.53151       12.25832
O         41.45780       53.43641       11.04772
H         39.49761       53.55616       12.88384
H         40.64900       54.21928       14.10487
H         40.24662       55.18515       12.63725
N         42.64484       53.05065       12.90680
C         43.78076       52.44310       12.22771
C         43.72460       50.94053       12.41266
O         43.56427       50.47215       13.53001
C         45.08414       53.05905       12.75435
C         46.28342       52.41701       12.12551
O         47.18509       51.79203       12.89998
O         46.43443       52.43758       10.91616
H         42.66137       53.08222       13.93768
H         43.74456       52.65051       11.13845
H         45.14309       52.93215       13.85627
H         45.09705       54.14677       12.52396
N         43.83990       50.12881       11.32176
C         43.63203       48.68615       11.35062
C         44.90858       47.90825       11.08708
O         44.84150       46.68369       11.07959
C         42.58250       48.32832       10.27061
C         41.27165       49.12651       10.38036
C         40.52049       48.84712       11.68480
C         39.22750       49.66478       11.75726
N         38.50320       49.37254       12.99277
H         44.04972       50.55467       10.40684
H         43.27179       48.36485       12.35009
H         42.35726       47.23973       10.30281
H         43.01807       48.55468        9.27076
H         40.62173       48.84390        9.52332
H         41.48610       50.21455       10.29251
H         41.15047       49.12172       12.55576
H         40.28118       47.76271       11.73838
H         38.58005       49.42261       10.88536
H         39.47465       50.75018       11.72237
H         39.09742       49.60471       13.82183
H         37.63319       49.95073       13.02532
H         38.24023       48.36039       13.02050
N         46.10338       48.52403       10.86738
C         47.33674       47.80589       10.56898
C         48.41005       48.08752       11.61564
O         49.52350       47.61100       11.45418
C         47.83497       48.26374        9.18516
C         46.74804       48.16625        8.14193
O         46.24356       49.29154        7.58890
O         46.29008       47.07902        7.82910
H         46.15627       49.55473       10.87913
H         47.16443       46.70733       10.53301
H         48.72472       47.67973        8.86552
H         48.15330       49.31772        9.27787
N         48.15982       48.87826       12.70499
C         49.17877       49.26433       13.66732
C         50.21366       50.23691       13.11341
O         51.08242       50.63197       13.87752
H         47.20826       49.22327       12.88486
H         49.67117       48.35494       14.07374
H         48.67930       49.78550       14.51417
N         50.19672       50.68034       11.81854
C         51.19136       51.60503       11.27232
C         51.02618       53.05128       11.74076
O         51.81781       53.88281       11.31772
C         51.27164       51.48959        9.72945
C         50.02238       51.73979        8.92944
O         48.84266       52.04029        9.49888
O         50.05939       51.55050        7.72409
H         49.48628       50.31431       11.17628
H         52.19725       51.26812       11.60942
H         51.57275       50.44172        9.50337
H         52.07698       52.15418        9.35097
N         50.07675       53.42889       12.64675
C         49.97656       54.78060       13.17730
C         49.42781       55.80837       12.20762
O         49.33055       56.95962       12.60723
H         49.44963       52.72715       13.05306
H         50.97519       55.09994       13.54944
H         49.28385       54.77042       14.04626
N         49.03119       55.48809       10.94217
C         48.46603       56.45944       10.00778
C         47.07738       56.02950        9.56718
O         46.80035       54.84062        9.50626
C         49.40270       56.66806        8.79554
C         50.68477       57.41639        9.19085
O         49.70892       55.44979        8.16372
H         49.12069       54.51647       10.61706
H         48.34739       57.45368       10.49228
H         48.88594       57.31824        8.05574
H         50.38521       54.97293        8.71367
H         51.31724       57.57754        8.29243
H         50.42606       58.40987        9.61678
H         51.26691       56.84537        9.94434
N         46.14780       56.97523        9.24061
C         44.77625       56.66826        8.85009
C         44.57317       57.09094        7.40583
O         44.59093       58.28133        7.12270
C         43.78270       57.39200        9.82155
C         43.91186       56.81020       11.25386
C         42.32069       57.31048        9.33350
C         43.17031       57.62704       12.31756
H         46.42313       57.96894        9.27352
H         44.59023       55.57800        8.91110
H         44.06361       58.46923        9.84573
H         44.97964       56.80100       11.55730
H         43.54090       55.76152       11.26526
H         42.21522       57.79144        8.34274
H         41.97927       56.25714        9.26995
H         41.63702       57.87339        9.99876
H         43.56871       58.66410       12.34431
H         42.07772       57.66041       12.13857
H         43.32884       57.16469       13.31444
N         44.36837       56.15224        6.43192
C         44.04229       56.51535        5.05036
C         42.63364       57.07740        4.99606
O         41.93547       57.00534        5.99395
C         44.12377       55.29806        4.08536
C         45.52797       54.70272        3.99086
O         43.19046       54.30311        4.42133
H         44.43562       55.15885        6.69358
H         44.77272       57.27900        4.70294
H         43.87371       55.64748        3.06065
H         43.52733       53.79876        5.20511
H         45.52605       53.87045        3.25457
H         46.25436       55.47211        3.65835
H         45.83698       54.30508        4.97538
N         42.12768       57.63739        3.86065
C         40.73186       58.06596        3.78700
C         39.80980       56.84627        3.65393
O         38.62284       56.96282        3.92202
C         40.53822       59.08735        2.64272
C         39.14677       59.73149        2.65357
O         41.49361       60.10789        2.79307
H         42.74161       57.75182        3.03947
H         40.50223       58.60376        4.73581
H         40.69918       58.55576        1.67456
H         41.71494       60.43895        1.88375
H         38.34729       58.98164        2.49568
H         38.97407       60.25335        3.62029
H         39.07672       60.47942        1.83587
N         40.30050       55.63925        3.23529
C         39.50956       54.41350        3.13530
C         39.04160       54.02438        4.52621
O         37.85188       53.86590        4.75817
C         40.39845       53.29237        2.52883
C         39.67468       51.99216        2.14284
C         38.76139       52.18164        0.92073
C         38.21160       50.84020        0.41812
N         37.41031       51.02737       -0.79176
H         41.29207       55.58118        2.96641
H         38.65025       54.59610        2.45651
H         41.20700       53.04027        3.24630
H         40.89508       53.67435        1.60971
H         39.11717       51.57064        3.00701
H         40.46506       51.26355        1.85515
H         39.35776       52.63566        0.09846
H         37.91809       52.85982        1.16697
H         37.58961       50.36786        1.20972
H         39.05974       50.15800        0.18308
H         37.05909       50.09849       -1.11870
H         36.59455       51.65019       -0.59207
H         37.99699       51.44826       -1.54936
N         39.96903       53.92447        5.51745
C         39.68750       53.67197        6.92291
C         38.72849       54.71998        7.45775
O         37.69300       54.34654        7.99049
C         41.02019       53.66898        7.70932
C         41.84642       52.40460        7.38305
C         43.20316       52.36694        8.02851
O         43.61219       53.29558        8.70392
O         43.98857       51.29047        7.84018
H         40.94598       54.10284        5.25753
H         39.21133       52.67450        7.05274
H         40.80450       53.66660        8.79026
H         41.59832       54.59177        7.47358
H         42.00178       52.31182        6.28954
H         41.27539       51.51662        7.72984
N         38.98422       56.04815        7.30695
C         38.07737       57.09485        7.73240
H         37.17040       56.69388        8.23133
H         38.59911       57.77444        8.43712
H         37.75450       57.67809        6.84359
H         39.84462       56.33815        6.83298
Ca        47.14019       51.27087        8.23329
O         47.91227       53.44303        6.15897
H         48.15456       54.14304        6.81182
H         48.16006       53.82926        5.28197
O         45.74541       51.45694        5.36639
H         45.82241       50.47201        5.31614
H         46.05631       51.76912        4.48086

Ca 1.0



