%chk=holoCaM.loop3.water2.frame466.chk
%nprocshared=20
%mem=10GB
%nosave
#b3lyp/svp scf=(tight,noincore,xqc) Test 
#IOP(5/87=12) Density=Current Pop=(MK,readradii) iop(6/33=2) iop(6/42=6)

holoCaM.loop3.water2.frame466 

   0  1 
C         27.68450       51.19418       84.29390
C         27.83452       49.90908       85.04864
O         28.57537       49.04589       84.59872
H         26.98672       51.88718       84.80891
H         28.67517       51.68745       84.20688
H         27.29025       50.98083       83.27875
N         27.17046       49.71162       86.22172
C         27.31008       48.48536       86.99128
C         26.75046       47.31500       86.19951
O         25.56807       47.31428       85.88437
C         26.60318       48.62606       88.35019
C         26.87819       47.48051       89.28007
O         27.57122       46.53173       88.94908
O         26.37570       47.52490       90.51789
H         26.57452       50.47007       86.58919
H         28.39473       48.34274       87.20148
H         25.50578       48.73923       88.20676
H         26.97784       49.54334       88.85258
N         27.56980       46.30111       85.80817
C         27.11963       45.19331       84.97160
C         26.10932       44.33700       85.72884
O         24.95448       44.26975       85.33297
C         28.32592       44.32776       84.50277
C         29.35093       45.12167       83.67153
C         30.57266       44.25917       83.31796
C         31.59481       45.07211       82.50931
N         32.80697       44.29600       82.24934
H         28.55909       46.35815       86.08142
H         26.63911       45.61477       84.06039
H         27.95436       43.47787       83.89023
H         28.85757       43.90508       85.37807
H         29.71828       45.99603       84.24874
H         28.86454       45.49329       82.74497
H         30.25849       43.36906       82.73239
H         31.04975       43.90486       84.25810
H         31.87038       45.98731       83.07179
H         31.13880       45.38749       81.54563
H         32.57490       43.43375       81.70572
H         33.47350       44.88014       81.69393
H         33.26622       44.03387       83.15232
N         26.51061       43.62172       86.81507
C         25.66793       42.68042       87.55358
C         24.73568       43.34942       88.57029
O         23.96943       42.63368       89.20152
C         26.55275       41.62172       88.25785
C         27.37217       42.22243       89.36610
O         27.20320       41.85269       90.51679
O         28.24737       43.21280       89.10680
H         27.50842       43.66507       87.03080
H         25.05459       42.11618       86.81512
H         27.22345       41.14187       87.51274
H         25.89719       40.82649       88.67930
N         24.72466       44.69813       88.78309
C         23.78267       45.34307       89.68825
C         24.04578       45.17368       91.18202
O         23.19324       45.62381       91.93568
H         25.32871       45.30673       88.21575
H         22.75964       44.97909       89.44487
H         23.78797       46.43783       89.49400
N         25.16781       44.58836       91.71122
C         25.37027       44.46262       93.16564
C         25.62454       45.79276       93.91798
O         25.92875       45.72296       95.10108
C         26.45252       43.40435       93.54639
C         27.92463       43.66833       93.18925
N         28.83790       43.17771       94.21569
O         28.20571       44.99021       92.89834
H         25.86770       44.18376       91.07353
H         24.44383       44.01716       93.59252
H         26.18509       42.41533       93.11521
H         26.39277       43.27784       94.64904
H         28.76036       42.13849       94.27033
H         29.81776       43.41625       93.93740
N         25.49102       47.02750       93.34278
C         25.69657       48.28288       94.06326
C         27.14234       48.77136       94.07087
O         27.40005       49.79355       94.69106
H         25.12062       47.10471       92.39611
H         25.30959       48.18314       95.10169
H         25.09050       49.07603       93.57570
N         28.13488       48.09710       93.42604
C         29.55656       48.44477       93.46109
C         30.15944       48.41727       92.06491
O         29.87867       47.48592       91.32089
C         30.29392       47.40415       94.32030
C         29.89016       47.48585       95.77108
C         29.22916       46.41519       96.39335
C         30.19124       48.63642       96.52117
C         28.87538       46.49500       97.74392
C         29.84117       48.71227       97.87077
C         29.18252       47.63990       98.48783
O         28.84504       47.69714       99.79177
H         27.88046       47.24511       92.92280
H         29.73084       49.44368       93.91696
H         31.39172       47.57449       94.26852
H         30.09085       46.39221       93.91202
H         28.98610       45.52038       95.83554
H         30.70736       49.47193       96.06464
H         28.36602       45.66351       98.21385
H         30.08676       49.60300       98.43552
H         29.05052       48.46649      100.34219
N         31.05860       49.36834       91.66726
C         31.68462       49.37696       90.34440
C         33.20015       49.22130       90.48072
O         33.84964       50.11193       91.01257
C         31.30677       50.69121       89.59867
C         29.76326       50.82658       89.51744
C         31.93570       50.73454       88.19251
C         29.28549       52.14604       88.91295
H         31.31334       50.11960       92.32776
H         31.30216       48.52718       89.73974
H         31.70610       51.54746       90.18745
H         29.33431       50.78259       90.54117
H         29.34589       49.98056       88.93175
H         31.74483       51.70639       87.69682
H         33.03721       50.62591       88.24284
H         31.51696       49.92651       87.56049
H         29.59269       52.24469       87.85318
H         28.17616       52.18024       88.94494
H         29.68440       53.00076       89.49981
N         33.82619       48.09603       90.02441
C         35.27305       47.88293       90.08465
C         36.00775       48.72328       89.04159
O         35.37032       49.40576       88.25353
C         35.59248       46.38445       89.87651
O         35.16912       45.95789       88.61211
H         33.24257       47.33671       89.65483
H         35.63180       48.14602       91.10395
H         35.06619       45.79430       90.65967
H         36.68551       46.20726       89.98079
H         35.43397       45.00450       88.53426
N         37.37103       48.69139       88.97126
C         38.15247       49.39476       87.95401
C         37.82159       48.88851       86.56381
O         37.64981       49.70046       85.66628
C         39.65129       49.21591       88.20858
H         37.87968       48.12753       89.66892
H         37.94870       50.48785       88.01205
H         39.94109       48.14521       88.16036
H         40.23256       49.78218       87.44798
H         39.91116       49.61910       89.21039
N         37.69688       47.55223       86.31999
C         37.29344       47.00914       85.02661
C         35.93268       47.54738       84.62121
O         35.81179       48.08700       83.53002
C         37.24110       45.47647       85.08191
H         37.85841       46.89678       87.10070
H         38.04801       47.28585       84.25598
H         38.24108       45.07195       85.34673
H         36.50485       45.12707       85.83700
H         36.95355       45.06813       84.08862
N         34.86362       47.44856       85.46615
C         33.52561       47.92986       85.12187
C         33.48442       49.43372       84.85903
O         32.48843       49.89801       84.32174
C         32.49455       47.56622       86.22034
C         32.34952       46.04808       86.41422
C         31.30052       45.70265       87.43558
O         31.41364       46.12304       88.70551
O         30.35207       45.00355       87.12667
H         35.01543       47.00244       86.37870
H         33.23135       47.42770       84.17771
H         31.49950       47.97111       85.92934
H         32.80475       48.03362       87.18015
H         33.30735       45.60059       86.74161
H         32.07272       45.59454       85.44469
N         34.51897       50.25253       85.19886
C         34.57410       51.66657       84.89349
H         35.48311       51.86654       84.28537
H         33.69071       52.01200       84.31859
H         34.64423       52.24704       85.83640
H         35.31671       49.86660       85.70634
Ca        28.78974       44.56238       90.78776
O         30.93408       42.45234       89.93985
H         31.73772       42.49315       90.51540
H         30.21508       42.14170       90.54571
O         31.72044       45.20556       91.85959
H         32.35084       45.58024       91.19569
H         32.03863       45.56295       92.72549

Ca 1.0



