%chk=holoCaM.loop2.water2.frame391.chk
%nprocshared=20
%mem=10GB
%nosave
#b3lyp/svp scf=(tight,noincore,xqc) Test 
#IOP(5/87=12) Density=Current Pop=(MK,readradii) iop(6/33=2) iop(6/42=6)

holoCaM.loop2.water2.frame391 

   -2  1 
C        113.59792       69.45925       98.77424
C        113.72878       70.64427       99.66791
O        112.88312       71.52839       99.65339
H        112.84381       69.64624       97.99130
H        114.58277       69.21484       98.33109
H        113.26937       68.59051       99.39544
N        114.75251       70.66378      100.55053
C        114.78314       71.55314      101.68979
C        115.06406       72.99293      101.27194
O        115.81728       73.22352      100.33991
C        115.79767       71.00345      102.72014
C        115.41504       71.44956      104.11515
O        115.02024       70.67075      105.11296
O        115.27178       72.60458      104.33509
H        115.46889       69.92639      100.46731
H        113.77473       71.49021      102.16855
H        116.81162       71.31404      102.38022
H        115.76078       69.89554      102.70965
N        114.50993       74.01216      101.96974
C        114.71203       75.43263      101.73888
C        115.84420       76.00839      102.58481
O        116.33026       77.08183      102.27581
C        113.39281       76.18153      101.98157
H        113.98382       73.75651      102.77732
H        115.02683       75.57256      100.70141
H        112.67191       75.92419      101.17992
H        112.93340       75.88470      102.95673
H        113.56171       77.27928      101.97287
N        116.29771       75.34442      103.66639
C        117.34098       75.73599      104.60744
C        118.49237       74.71328      104.73386
O        119.63848       75.12238      104.84554
C        116.67861       76.04139      105.94360
C        115.74832       74.97576      106.38112
O        114.53355       75.10225      106.39758
O        116.28946       73.82873      106.69240
H        115.75491       74.55261      103.89671
H        117.79995       76.68075      104.28917
H        116.11425       76.97574      105.83079
H        117.47382       76.15851      106.69868
N        118.25701       73.37958      104.68020
C        119.21762       72.32637      104.45897
C        119.69845       71.69132      105.73303
O        120.63693       70.91236      105.66459
H        117.31802       73.08336      104.60492
H        120.07887       72.70420      103.86990
H        118.72140       71.57614      103.80909
N        119.16940       72.03594      106.93993
C        119.86399       71.79200      108.19488
C        119.63798       70.43449      108.80082
O        120.25090       70.14599      109.82656
C        119.42751       72.83972      109.22007
C        119.91238       74.20696      108.89614
N        119.00348       75.18502      108.76800
O        121.10928       74.45851      108.84652
H        118.37213       72.67764      106.95993
H        120.94695       71.88128      107.98933
H        119.79558       72.62008      110.23489
H        118.32143       72.85304      109.30017
H        117.99821       74.95688      108.80647
H        119.30978       76.16056      108.71427
N        118.77784       69.55342      108.22949
C        118.57908       68.20640      108.71869
C        117.16576       67.87854      109.20459
O        117.00861       66.85039      109.83702
H        118.28932       69.82704      107.37274
H        119.28054       68.02130      109.55209
H        118.82710       67.52930      107.88101
N        116.10105       68.67798      108.93912
C        114.69617       68.44423      109.29348
C        113.74110       68.85758      108.12471
O        113.80670       70.09921      107.50078
C        114.30352       69.11929      110.62147
C        115.06730       68.59859      111.83800
O        114.47054       70.50602      110.55603
H        116.31724       69.41544      108.31828
H        114.54870       67.35724      109.42659
H        113.23080       68.87242      110.77819
H        113.60516       70.91175      110.82297
H        116.16312       68.59358      111.67189
H        114.87391       69.27868      112.69178
H        114.70654       67.58522      112.11612
N        112.44269       68.18124      108.00368
C        111.45643       68.62006      106.98577
C        110.35737       69.41818      107.66342
O        109.74983       68.94473      108.60988
C        110.97141       67.40199      106.12956
C        112.03374       67.12036      105.04737
C        109.57342       67.53933      105.49780
C        112.05300       68.07160      103.84425
H        112.41123       67.18612      108.32498
H        111.92271       69.29811      106.25841
H        110.95084       66.49469      106.77281
H        111.87728       66.11327      104.62650
H        113.01832       67.14756      105.55630
H        109.44638       66.71690      104.76650
H        108.76665       67.41279      106.25220
H        109.44058       68.51883      104.99272
H        111.75880       69.09619      104.08042
H        113.08246       68.09618      103.44289
H        111.37247       67.70653      103.04747
N        110.02928       70.64798      107.17241
C        108.91879       71.46156      107.60393
C        107.76168       71.19560      106.71193
O        107.95598       70.72325      105.61770
C        109.24294       72.96370      107.52119
C        110.60033       73.28820      108.05163
O        110.88702       73.04006      109.33906
O        111.45036       73.77007      107.31627
H        110.49801       70.99108      106.35789
H        108.62581       71.17452      108.62298
H        108.47116       73.51083      108.09817
H        109.20676       73.31046      106.46411
N        106.51853       71.47927      107.13492
C        105.31538       71.20408      106.37770
C        105.32017       71.81273      104.98203
O        104.91099       71.09450      104.07665
C        104.11745       71.70764      107.16932
C        102.80080       71.38639      106.49852
C        102.37692       70.05023      106.34133
C        101.97699       72.42308      106.03618
C        101.12782       69.76617      105.76766
C        100.75709       72.13246      105.42243
C        100.32301       70.80761      105.30424
H        106.43365       71.87526      108.08118
H        105.21201       70.10145      106.28887
H        104.27173       72.79856      107.30781
H        104.12369       71.23218      108.17385
H        103.00473       69.23546      106.68111
H        102.27492       73.45864      106.14421
H        100.76918       68.74537      105.67697
H        100.14836       72.94493      105.05228
H         99.36276       70.58181      104.85622
N        105.73239       73.09438      104.68596
C        105.66402       73.63166      103.34210
C        106.68628       73.00172      102.37920
O        106.65400       73.31935      101.20266
C        105.87444       75.13919      103.50835
C        105.86301       75.40383      105.02616
C        106.30062       74.06967      105.59056
H        104.63474       73.45357      102.97026
H        106.88407       75.39052      103.13229
H        105.11722       75.71176      102.93092
H        106.50986       76.26857      105.31750
H        104.84501       75.58583      105.43451
H        107.39954       74.02924      105.45606
H        106.03285       73.95028      106.65122
N        107.59445       72.08542      102.82639
C        108.50572       71.25132      102.03176
C        107.89401       69.86242      101.86824
O        107.94043       69.29830      100.78507
C        109.87849       71.09583      102.73878
C        110.44234       72.39210      103.32300
C        111.74198       72.19785      104.06155
O        111.97824       71.17190      104.86577
O        112.51624       73.11142      104.12560
H        107.62645       71.95736      103.82735
H        108.62838       71.66848      101.01180
H        110.60679       70.67439      102.01569
H        109.75695       70.38124      103.57615
H        109.71777       72.82265      104.04142
H        110.59459       73.11969      102.49994
N        107.26044       69.27359      102.91668
C        106.41277       68.11598      102.81947
H        105.47398       68.41362      102.30310
H        106.91174       67.29293      102.28131
H        106.13737       67.78553      103.84685
H        107.27882       69.71844      103.82207
Ca       113.88461       72.09576      106.56163
O        116.30136       71.46687      108.13162
H        115.62039       71.41287      108.83087
H        116.49013       72.39215      108.16137
O        114.18996       73.39011      108.95970
H        114.84102       74.13210      109.00479
H        113.34340       73.77823      109.28091

Ca 1.0



