%chk=holoCaM-CaMKII.loop3.water2.frame234.chk
%nprocshared=20
%mem=10GB
%nosave
#b3lyp/svp scf=(tight,noincore,xqc) Test 
#IOP(5/87=12) Density=Current Pop=(MK,readradii) iop(6/33=2) iop(6/42=6)

holoCaM-CaMKII.loop3.water2.frame234 

   0  1 
C         82.62353       23.06726       29.40393
C         83.08696       22.76016       28.00872
O         83.19917       21.59212       27.66480
H         81.60286       22.65683       29.55642
H         83.31622       22.60717       30.13821
H         82.58987       24.16218       29.58855
N         83.34053       23.76886       27.13079
C         83.74372       23.53254       25.75152
C         85.18681       23.04900       25.69573
O         86.06454       23.73788       26.19757
C         83.56493       24.82753       24.93065
C         83.70272       24.62082       23.44538
O         83.53160       25.56238       22.69223
O         83.99615       23.41465       22.92811
H         83.18020       24.74006       27.44142
H         83.04388       22.78776       25.30836
H         84.28189       25.60394       25.27626
H         82.53578       25.20999       25.09944
N         85.50363       21.88139       25.06976
C         86.86710       21.36820       24.94790
C         87.78222       22.36934       24.25402
O         88.83100       22.67637       24.80357
C         86.85927       20.02246       24.17929
C         88.25285       19.37245       24.09177
C         88.19349       18.01444       23.37648
C         89.59058       17.38286       23.27327
N         89.53301       16.07919       22.61148
H         84.73530       21.33626       24.65318
H         87.26338       21.16111       25.96788
H         86.46986       20.17905       23.15153
H         86.17802       19.32017       24.70913
H         88.65297       19.22252       25.11849
H         88.94196       20.04283       23.53359
H         87.78089       18.15130       22.35275
H         87.52327       17.33082       23.94263
H         90.01984       17.25467       24.29193
H         90.25953       18.05770       22.69377
H         88.94041       15.42008       23.16686
H         89.14114       16.17959       21.64702
H         90.49999       15.68646       22.54351
N         87.45294       22.90690       23.04333
C         88.35199       23.76789       22.27116
C         87.89219       25.22042       22.16717
O         88.58032       25.99282       21.51296
C         88.60895       23.13974       20.88330
C         87.40512       23.02849       19.98101
O         87.53926       22.54445       18.86948
O         86.18813       23.45245       20.36764
H         86.53465       22.66754       22.64583
H         89.34502       23.82047       22.76959
H         89.02654       22.12057       21.03468
H         89.37709       23.74513       20.35455
N         86.80738       25.69580       22.84274
C         86.46976       27.11332       22.87788
C         85.96098       27.70305       21.57634
O         85.79901       28.91550       21.54171
H         86.27249       25.06047       23.44642
H         87.37477       27.67498       23.19781
H         85.68379       27.28972       23.64341
N         85.65608       26.94836       20.47838
C         85.18326       27.54921       19.22737
C         83.84906       28.29192       19.37158
O         83.45654       28.96435       18.42910
C         85.12497       26.49716       18.09175
C         84.00643       25.48874       18.22776
N         83.14004       25.28378       17.20723
O         83.89268       24.83544       19.25194
H         85.79665       25.93183       20.52226
H         85.95741       28.29047       18.92770
H         86.09548       25.95549       18.06877
H         85.01986       27.02077       17.11659
H         83.22733       25.80416       16.32189
H         82.38733       24.58509       17.29117
N         83.10071       28.21046       20.51279
C         81.85481       28.92596       20.73782
C         80.67591       27.98671       20.88511
O         79.59325       28.46547       21.19624
H         83.40858       27.60646       21.28227
H         81.62630       29.63284       19.91133
H         81.97077       29.51933       21.66983
N         80.78434       26.65670       20.60227
C         79.65790       25.73283       20.57299
C         79.98462       24.47749       21.35800
O         81.09550       23.97388       21.25151
C         79.37474       25.37861       19.10276
C         79.04325       26.63125       18.31956
C         77.85768       27.34690       18.56928
C         79.93849       27.11252       17.35198
C         77.57994       28.52261       17.86274
C         79.66492       28.29080       16.65489
C         78.48372       29.00100       16.90786
O         78.21060       30.14225       16.24393
H         81.68805       26.28441       20.27559
H         78.73182       26.19472       20.98372
H         78.53250       24.65715       19.01920
H         80.28199       24.89121       18.68399
H         77.14949       26.99756       19.31039
H         80.85914       26.58819       17.14982
H         76.66475       29.06638       18.06205
H         80.37561       28.65237       15.92275
H         78.81586       30.50960       15.58364
N         79.02626       23.87154       22.10823
C         79.23462       22.64448       22.86985
C         78.46250       21.53051       22.18105
O         77.27245       21.68575       21.93805
C         78.79702       22.86840       24.34458
C         79.65652       23.99502       24.97932
C         78.92430       21.56327       25.15834
C         79.15401       24.46122       26.34564
H         78.07693       24.27885       22.11276
H         80.31073       22.36090       22.88368
H         77.72982       23.18376       24.34219
H         79.64226       24.89394       24.32724
H         80.70949       23.65277       25.06563
H         79.98038       21.21653       25.18007
H         78.57091       21.70066       26.19923
H         78.29831       20.76018       24.71717
H         79.80650       25.28150       26.71371
H         78.11838       24.85259       26.25166
H         79.17591       23.64858       27.09729
N         79.09433       20.37302       21.83266
C         78.47207       19.29320       21.07161
C         78.26365       18.06222       21.93053
O         78.59800       18.08867       23.10233
C         79.36401       18.96823       19.85751
O         80.63089       18.54449       20.28710
H         80.07587       20.24617       22.12093
H         77.46982       19.60136       20.70362
H         79.46477       19.88515       19.23988
H         78.90167       18.17177       19.23648
H         81.17949       18.41789       19.47006
N         77.67653       16.94838       21.40951
C         77.47420       15.70657       22.15183
C         78.80119       15.06474       22.50853
O         79.01186       14.73442       23.66618
C         76.65292       14.71911       21.31557
H         77.35157       16.98738       20.43073
H         76.88615       15.91011       23.07537
H         76.47960       13.78453       21.89190
H         75.66490       15.16557       21.07393
H         77.17231       14.46533       20.36714
N         79.74929       14.87189       21.54607
C         81.05288       14.26133       21.79456
C         81.77784       14.96339       22.92657
O         82.17755       14.30214       23.87504
C         81.90041       14.30340       20.51458
H         79.53778       15.20086       20.59110
H         80.91167       13.19222       22.07022
H         82.88820       13.82544       20.68671
H         81.38424       13.75188       19.69930
H         82.06263       15.35129       20.18091
N         81.94010       16.31376       22.91194
C         82.57954       17.05798       23.99366
C         81.87533       16.83353       25.32349
O         82.54592       16.58031       26.31425
C         82.61119       18.56881       23.68526
C         83.50122       18.89136       22.47382
C         83.70612       20.39491       22.34967
O         82.50552       21.05173       22.06408
O         84.60653       20.68741       21.31944
H         81.56058       16.83320       22.10651
H         83.63640       16.72712       24.10408
H         83.05029       19.08452       24.56862
H         81.58138       18.96150       23.53222
H         83.08049       18.47752       21.53320
H         84.50246       18.43914       22.64024
N         80.52283       16.90219       25.41658
C         79.80661       16.73906       26.66174
H         78.71132       16.77813       26.47351
H         80.05166       15.75989       27.12379
H         80.07417       17.56239       27.35667
H         79.98066       17.05299       24.56592
Ca        83.27005       22.16052       20.24600
O         84.49569       22.23632       17.65408
H         84.67659       22.69176       16.79469
H         85.24037       21.59376       17.76308
O         81.13840       21.67969       18.41936
H         80.48747       22.27085       18.87453
H         81.60069       22.26753       17.77164

Ca 1.0



