%chk=holoCaM.loop2.water2.frame420.chk
%nprocshared=20
%mem=10GB
%nosave
#b3lyp/svp scf=(tight,noincore,xqc) Test 
#IOP(5/87=12) Density=Current Pop=(MK,readradii) iop(6/33=2) iop(6/42=6)

holoCaM.loop2.water2.frame420 

   -2  1 
C         -3.83897      112.82633       35.40114
C         -2.78362      113.27137       34.43469
O         -1.60933      113.00880       34.65301
H         -4.57108      112.17396       34.87945
H         -3.39293      112.26456       36.24790
H         -4.36917      113.71786       35.79842
N         -3.14949      113.95465       33.31883
C         -2.19931      114.43731       32.32672
C         -1.31289      115.50980       32.95403
O         -1.84847      116.49934       33.43366
C         -2.98854      114.98385       31.11416
C         -2.14737      115.29937       29.91724
O         -2.67775      115.73990       28.91184
O         -0.82811      115.05945       29.91755
H         -4.15741      114.12064       33.16644
H         -1.59591      113.57676       31.96826
H         -3.55775      115.88869       31.41689
H         -3.71252      114.20758       30.78136
N          0.04663      115.37727       32.99194
C          0.94036      116.35341       33.61907
C          1.81109      117.09331       32.60426
O          2.52367      118.00527       32.99962
C          1.82175      115.62919       34.64291
H          0.47225      114.54910       32.55611
H          0.34510      117.12774       34.14831
H          1.18907      115.11211       35.39514
H          2.45440      114.86788       34.13382
H          2.48604      116.34552       35.17070
N          1.80474      116.75369       31.28620
C          2.57256      117.41995       30.23426
C          1.67482      117.90690       29.09240
O          2.19609      118.46803       28.13856
C          3.68767      116.47370       29.72449
C          3.22179      115.13021       29.20648
O          4.04915      114.30469       28.86569
O          1.90792      114.82788       29.17571
H          1.22905      115.95826       31.01168
H          3.08712      118.31897       30.64134
H          4.37085      116.28258       30.58132
H          4.27829      116.99037       28.93631
N          0.31745      117.77159       29.13716
C         -0.59067      118.29322       28.13213
C         -0.57129      117.62277       26.76892
O         -1.36775      118.06613       25.95200
H         -0.12592      117.36999       29.97094
H         -0.40015      119.38090       28.00673
H         -1.62844      118.18539       28.51760
N          0.25959      116.59211       26.40371
C          0.21092      116.06539       25.03242
C         -1.10795      115.35762       24.72543
O         -1.39767      115.13319       23.55878
C          1.42119      115.17731       24.66291
C          1.38778      113.78849       25.24538
N          1.38107      112.69971       24.43785
O          1.38246      113.64201       26.45241
H          0.95657      116.22947       27.06809
H          0.29544      116.95648       24.37045
H          2.35822      115.68735       24.97281
H          1.44523      115.08436       23.55572
H          1.39819      112.79743       23.41203
H          1.36821      111.74987       24.83602
N         -1.94346      114.96400       25.72920
C         -3.24595      114.35833       25.52423
C         -3.33594      112.97169       26.11752
O         -4.45230      112.50466       26.29598
H         -1.65837      115.10436       26.70701
H         -3.54365      114.31120       24.45473
H         -3.98382      115.00764       26.04448
N         -2.22351      112.22457       26.39432
C         -2.29475      110.88244       26.96853
C         -1.38609      110.78342       28.22259
O         -1.45519      111.96959       28.95778
C         -1.89389      109.83193       25.90311
C         -2.86840      109.84074       24.71759
O         -0.59355      110.09356       25.44528
H         -1.29172      112.59624       26.15920
H         -3.33728      110.66292       27.29211
H         -1.93203      108.81940       26.36234
H         -0.27223      109.27008       24.99358
H         -3.89914      109.61722       25.06672
H         -2.86522      110.82550       24.20444
H         -2.57415      109.06368       23.98071
N         -1.81471      109.67661       29.08988
C         -0.89047      109.38408       30.20302
C          0.07056      108.24143       29.87513
O         -0.34064      107.22976       29.32417
C         -1.68308      109.14487       31.52331
C         -2.69524      107.97746       31.42532
C         -2.37099      110.45814       31.95104
C         -3.38261      107.66770       32.75923
H         -2.09740      108.81229       28.57629
H         -0.25731      110.27240       30.41885
H         -0.94527      108.89410       32.31399
H         -2.15815      107.05697       31.11871
H         -3.47265      108.20326       30.66390
H         -3.14052      110.76908       31.21328
H         -2.83963      110.37261       32.95102
H         -1.61718      111.26405       32.03887
H         -2.62295      107.43512       33.53318
H         -4.01009      108.51328       33.10649
H         -4.04947      106.78893       32.64078
N          1.37303      108.32830       30.27229
C          2.38185      107.28833       30.07689
C          2.51176      106.48598       31.37733
O          1.73753      106.74651       32.28142
C          3.69773      107.99986       29.67336
C          4.75453      107.14734       29.02056
O          4.50219      105.88493       28.62493
O          5.83586      107.64622       28.75432
H          1.65633      109.15408       30.81564
H          2.05970      106.60434       29.26159
H          4.10801      108.50895       30.57353
H          3.47168      108.78697       28.92587
N          3.42162      105.48317       31.55356
C          3.50661      104.67582       32.77115
C          3.78717      105.52132       34.02027
O          3.00510      105.39217       34.94968
C          4.51720      103.51787       32.59364
C          4.58495      102.61489       33.80233
C          3.46260      101.86779       34.20261
C          5.77914      102.50388       34.53554
C          3.53689      101.02495       35.31573
C          5.84735      101.66283       35.65000
C          4.72793      100.92287       36.03904
H          4.06274      105.24987       30.79143
H          2.51664      104.18616       32.91541
H          5.52004      103.90732       32.36197
H          4.21951      102.90356       31.71619
H          2.53345      101.93031       33.65059
H          6.65647      103.07002       34.24796
H          2.67126      100.44888       35.61628
H          6.76943      101.58370       36.21106
H          4.78398      100.26948       36.89997
N          4.83172      106.40680       34.15031
C          5.02347      107.26546       35.32061
C          3.76189      108.00994       35.73205
O          3.38736      107.97361       36.89549
C          6.09018      108.27158       34.85703
C          6.92438      107.42521       33.93259
C          5.85193      106.66871       33.15262
H          5.40893      106.64597       36.16114
H          5.63465      109.05918       34.21412
H          6.64052      108.77304       35.68148
H          7.65453      107.97495       33.30158
H          7.48064      106.69646       34.56763
H          5.40932      107.27685       32.33513
H          6.34334      105.77066       32.74889
N          3.04895      108.69020       34.79550
C          1.82703      109.44827       35.05878
C          0.72763      108.56358       35.63401
O          0.01902      109.00776       36.52598
C          1.34822      110.11419       33.75234
C          2.36051      111.16215       33.24271
C          1.96184      111.69934       31.90220
O          0.76921      112.29383       31.74132
O          2.71741      111.59567       30.94860
H          3.39534      108.64365       33.82489
H          2.03297      110.26425       35.78673
H          0.37249      110.62370       33.91687
H          1.20341      109.31948       32.99634
H          3.37631      110.72626       33.14513
H          2.41709      111.99946       33.97079
N          0.54687      107.29003       35.19419
C         -0.46403      106.40259       35.72385
H         -1.47378      106.81076       35.52011
H         -0.37797      105.40507       35.23864
H         -0.32488      106.27312       36.81747
H          1.16967      106.91944       34.47768
Ca         0.61957      112.96332       28.91146
O          3.95293      111.69609       28.10551
H          4.19499      112.23934       27.31353
H          4.81031      111.31863       28.42384
O          1.64030      110.05760       27.59054
H          1.20730      110.85179       27.19209
H          2.39437      109.85994       26.98079

Ca 1.0



