%chk=holoCaM-CaMKII.loop3.water1.frame410.chk
%nprocshared=20
%mem=10GB
%nosave
#b3lyp/svp scf=(tight,noincore,xqc) Test 
#IOP(5/87=12) Density=Current Pop=(MK,readradii) iop(6/33=2) iop(6/42=6)

holoCaM-CaMKII.loop3.water1.frame410 

   0  1 
C         35.97628       41.08506       45.35050
C         34.93248       40.28547       46.06786
O         35.16193       39.92533       47.21385
H         36.90953       40.48957       45.27208
H         35.64198       41.36573       44.33029
H         36.18351       42.01320       45.92399
N         33.75696       39.96442       45.45394
C         32.69577       39.22111       46.11392
C         32.51042       37.87624       45.43401
O         32.27843       37.81354       44.23512
C         31.42112       40.07641       46.16677
C         30.33014       39.45616       46.99281
O         29.26646       40.18897       47.32631
O         30.41240       38.31905       47.41411
H         33.60136       40.26423       44.47909
H         32.97609       39.03610       47.17153
H         31.03877       40.31238       45.15049
H         31.69227       41.03196       46.66666
N         32.64837       36.74625       46.18064
C         32.66632       35.38366       45.65760
C         31.37867       34.98189       44.94702
O         31.43941       34.11684       44.08497
C         32.95132       34.43421       46.84340
C         33.31212       32.99472       46.46946
C         33.64373       32.21157       47.75047
C         34.15105       30.79962       47.44572
N         34.47094       30.08856       48.68431
H         32.81704       36.87115       47.19079
H         33.51234       35.32316       44.93754
H         32.07512       34.44407       47.52941
H         33.83057       34.84026       47.39395
H         34.20690       33.01706       45.80974
H         32.47505       32.50147       45.93150
H         32.73639       32.15471       48.39204
H         34.43979       32.74759       48.31389
H         35.06811       30.86921       46.81876
H         33.37770       30.23375       46.88177
H         35.19992       30.61088       49.22374
H         33.61097       29.98298       49.27030
H         34.84154       29.13957       48.45045
N         30.17585       35.52345       45.29375
C         28.89623       35.11710       44.70958
C         28.20467       36.26137       43.97506
O         27.60508       35.98930       42.94366
C         27.97620       34.44699       45.75406
C         27.66961       35.31008       46.94369
O         26.52114       35.64247       47.18772
O         28.66750       35.68144       47.76726
H         30.17109       36.23689       46.02949
H         29.06199       34.32488       43.94496
H         28.46562       33.52043       46.12729
H         27.03078       34.14429       45.24999
N         28.27038       37.55867       44.40260
C         27.73713       38.67778       43.63321
C         26.66655       39.48074       44.34698
O         26.24313       40.47743       43.77803
H         28.77198       37.78517       45.27061
H         27.29913       38.33922       42.66843
H         28.58390       39.35373       43.38790
N         26.13043       39.10687       45.54659
C         25.00301       39.83036       46.14846
C         25.35226       41.22681       46.67024
O         24.44049       41.95173       47.04222
C         24.33853       38.99887       47.26415
C         25.19523       38.86901       48.49642
N         24.75739       39.31961       49.69218
O         26.29446       38.35116       48.41818
H         26.45641       38.23053       45.97635
H         24.23667       39.94019       45.34969
H         24.10190       37.98604       46.87207
H         23.37635       39.48253       47.53796
H         23.83201       39.76197       49.79055
H         25.35282       39.21960       50.52437
N         26.63906       41.65662       46.76291
C         27.02945       42.98763       47.19503
C         27.78870       43.03506       48.51098
O         28.38714       44.07591       48.74692
H         27.38469       41.02817       46.46643
H         26.16636       43.68032       47.27665
H         27.68966       43.39618       46.39681
N         27.77924       42.02582       49.44524
C         28.54816       42.12414       50.69592
C         29.52523       40.97463       50.85827
O         29.39755       39.96979       50.17328
C         27.64770       42.37382       51.93159
C         26.66969       41.29290       52.34929
C         27.11565       40.05044       52.83538
C         25.28586       41.55541       52.33009
C         26.19701       39.09659       53.29150
C         24.37085       40.59743       52.78005
C         24.82138       39.36585       53.26257
O         23.92684       38.45450       53.69714
H         27.20798       41.18414       49.27836
H         29.19156       43.02870       50.64117
H         27.08530       43.31013       51.72118
H         28.29440       42.58505       52.81082
H         28.17108       39.82245       52.88791
H         24.90980       42.50731       51.97734
H         26.55496       38.15027       53.67606
H         23.31011       40.81578       52.76017
H         24.19488       37.58852       54.03661
N         30.60150       41.11332       51.69024
C         31.67955       40.12966       51.78983
C         31.89419       39.68434       53.22949
O         31.14713       40.09295       54.10963
C         32.96004       40.66220       51.05717
C         33.58828       41.97048       51.60091
C         32.62598       40.85952       49.56919
C         34.22885       41.84037       52.98078
H         30.70901       41.99772       52.21074
H         31.40314       39.19869       51.24883
H         33.74509       39.87733       51.07572
H         32.84681       42.79675       51.59962
H         34.41422       42.26110       50.91327
H         31.87244       41.66174       49.42351
H         33.53626       41.12969       48.99494
H         32.22516       39.91423       49.15086
H         33.47755       41.64065       53.76602
H         34.99273       41.03271       52.97305
H         34.73478       42.79528       53.23706
N         32.90772       38.82412       53.53592
C         33.12091       38.25723       54.86552
C         34.52114       37.65218       55.00634
O         35.31403       37.72424       54.07781
C         32.03600       37.19090       55.12318
O         32.15081       36.16217       54.17700
H         33.54482       38.55137       52.78134
H         33.05082       39.06372       55.62851
H         31.02952       37.65628       55.04407
H         32.13934       36.77003       56.14581
H         31.44166       35.50250       54.39160
N         34.89540       37.03826       56.16529
C         36.20363       36.41698       56.36555
C         36.46740       35.34889       55.32303
O         37.52038       35.37435       54.70282
C         36.28967       35.79473       57.76309
H         34.21506       36.99846       56.93930
H         36.99822       37.19426       56.30013
H         37.29413       35.34410       57.91677
H         36.13744       36.57747       58.53604
H         35.51903       35.00537       57.89468
N         35.53478       34.39126       55.06294
C         35.70516       33.36045       54.04480
C         35.92803       33.97027       52.67248
O         36.90969       33.63874       52.02242
C         34.46231       32.45868       53.99970
H         34.65379       34.41450       55.60030
H         36.57606       32.72075       54.30938
H         34.59200       31.66161       53.23646
H         34.30594       31.97642       54.98759
H         33.55129       33.04454       53.74823
N         35.03375       34.86194       52.16512
C         35.12247       35.41277       50.81281
C         36.32992       36.32377       50.61005
O         36.56633       36.72563       49.47831
C         33.85563       36.22606       50.49211
C         32.56444       35.39911       50.59734
C         31.38389       36.29647       50.43961
O         31.24696       36.94259       49.41926
O         30.48709       36.42016       51.43702
H         34.23832       35.12130       52.76492
H         35.18837       34.56309       50.09701
H         33.92435       36.64914       49.46462
H         33.80428       37.07096       51.20394
H         32.46747       34.90700       51.58344
H         32.55579       34.60737       49.82157
N         37.11585       36.72886       51.64535
C         38.24008       37.61944       51.46405
H         38.99220       37.15081       50.79578
H         37.89574       38.58102       51.02718
H         38.71555       37.82899       52.44651
H         36.90652       36.42540       52.60013
Ca        28.39286       37.05726       49.52114
O         26.29424       36.31334       51.45904
H         26.78302       35.49111       51.20407
H         27.00855       36.95452       51.69955

Ca 1.0



