%chk=holoCaM.loop1.water2.frame246.chk
%nprocshared=20
%mem=10GB
%nosave
#b3lyp/svp scf=(tight,noincore,xqc) Test 
#IOP(5/87=12) Density=Current Pop=(MK,readradii) iop(6/33=2) iop(6/42=6)

holoCaM.loop1.water2.frame246 

   0  1 
C         62.38650      102.13210       55.42500
C         62.70472      102.42412       53.98971
O         63.60304      101.81439       53.43271
H         61.33464      101.79374       55.51752
H         63.06730      101.35868       55.83621
H         62.51781      103.06501       56.01790
N         62.01732      103.40603       53.35133
C         62.37338      103.97236       52.05607
C         63.36518      105.08262       52.35116
O         63.02620      106.25611       52.38631
C         61.07359      104.39565       51.36322
C         61.23930      105.23385       50.14063
O         60.72166      106.33804       50.12560
O         61.80647      104.75401       49.01714
H         61.32207      103.92240       53.91430
H         62.87755      103.23632       51.38914
H         60.45160      104.97486       52.07805
H         60.50610      103.48210       51.08045
N         64.62322      104.70103       52.69601
C         65.66717      105.54391       53.25882
C         66.16768      106.64986       52.32358
O         66.92477      107.49254       52.78368
C         66.81761      104.59315       53.70908
C         67.72153      105.15232       54.80715
C         68.63553      104.06581       55.41174
C         69.77373      103.61855       54.48303
N         70.62234      102.62658       55.14902
H         64.81163      103.69577       52.65218
H         65.21529      106.01033       54.16078
H         67.38881      104.23031       52.82501
H         66.34267      103.70303       54.18195
H         67.05199      105.48845       55.62833
H         68.31320      106.02076       54.45400
H         68.02646      103.18373       55.71648
H         69.09461      104.48901       56.32951
H         70.38708      104.51003       54.22847
H         69.37651      103.18249       53.54046
H         70.10164      101.72624       55.26192
H         71.47509      102.45461       54.56918
H         70.92492      102.97305       56.08891
N         65.81742      106.69509       51.00191
C         66.28183      107.71711       50.05639
C         65.13406      108.42615       49.30786
O         65.42497      109.32120       48.52633
C         67.37452      107.13664       49.11937
C         67.04383      105.88172       48.35594
O         67.88386      105.39540       47.61806
O         65.87192      105.25123       48.50661
H         65.22913      105.93940       50.63673
H         66.80412      108.53196       50.60786
H         68.25960      106.89061       49.74612
H         67.68955      107.92609       48.40083
N         63.81741      108.16825       49.57059
C         62.70994      108.99051       49.08419
C         62.30660      108.78205       47.63507
O         62.26856      109.74238       46.87974
H         63.57937      107.45530       50.26904
H         62.92739      110.06133       49.29136
H         61.80867      108.73117       49.67900
N         61.92241      107.54859       47.20711
C         61.37757      107.23407       45.88497
C         60.09862      106.36809       45.95722
O         59.63002      105.93917       44.91162
C         62.47812      106.58218       45.02197
C         63.20603      105.45497       45.69343
O         62.54900      104.36496       46.10485
O         64.41115      105.52717       45.86845
H         62.05057      106.77274       47.86024
H         61.09357      108.16098       45.33714
H         63.22831      107.36702       44.78250
H         62.04487      106.23584       44.05865
N         59.44204      106.12156       47.13108
C         58.19981      105.35905       47.24080
C         58.33628      103.84677       47.12117
O         57.31772      103.18317       47.25618
H         59.77055      106.57944       47.98475
H         57.46010      105.73956       46.50189
H         57.77327      105.53734       48.25239
N         59.52478      103.22258       46.87501
C         59.66847      101.76645       46.76554
C         60.76554      101.22120       47.68529
O         61.46959      101.98925       48.32489
C         59.91156      101.36715       45.27796
C         58.64314      101.58628       44.45585
O         60.94039      102.10534       44.67082
H         60.35584      103.79956       46.72786
H         58.73678      101.25970       47.09922
H         60.15185      100.28431       45.21060
H         61.63355      102.27239       45.34714
H         57.80828      100.98486       44.87394
H         58.35639      102.65883       44.45064
H         58.81806      101.26132       43.40830
N         60.91693       99.86603       47.81924
C         61.87398       99.20549       48.70799
C         62.76620       98.25606       47.89853
O         62.26307       97.30691       47.31435
C         61.07959       98.43746       49.81769
C         60.25721       99.38766       50.73427
C         61.95662       97.50785       50.67592
C         61.08626      100.40827       51.52684
H         60.27659       99.25415       47.29196
H         62.53164       99.94986       49.20137
H         60.35130       97.76794       49.30692
H         59.68975       98.76838       51.46396
H         59.51230       99.94389       50.12710
H         61.32356       96.95812       51.40577
H         62.44439       96.74015       50.04556
H         62.73368       98.06259       51.22959
H         60.41445      100.99642       52.18662
H         61.84086       99.91360       52.17013
H         61.59655      101.12194       50.85201
N         64.11582       98.46223       47.83816
C         65.07581       97.57906       47.17091
C         65.28557       96.30743       47.97797
O         64.66299       96.13280       49.00852
C         66.46014       98.28869       46.99230
C         66.39630       99.46949       46.02239
O         67.01624       98.66074       48.22934
H         64.48488       99.29172       48.30094
H         64.70695       97.31969       46.15566
H         67.18346       97.60206       46.51283
H         66.77907       99.60397       48.41901
H         67.41235       99.89691       45.88659
H         66.01497       99.13472       45.03499
H         65.74208      100.25312       46.43061
N         66.20601       95.39002       47.57775
C         66.62081       94.24525       48.38207
C         67.25497       94.73372       49.68530
O         66.88408       94.25706       50.74806
C         67.63101       93.38691       47.56950
C         68.08699       92.13877       48.32965
O         67.02689       92.95823       46.37337
H         66.67723       95.54350       46.67660
H         65.74191       93.59953       48.60387
H         68.54598       93.98744       47.34488
H         67.24770       93.62108       45.66834
H         68.59944       92.40847       49.27609
H         67.21555       91.48849       48.55736
H         68.80162       91.56327       47.70228
N         68.23143       95.68659       49.65807
C         68.97377       96.15050       50.83313
C         68.04288       96.74192       51.88816
O         68.06880       96.30852       53.03095
C         70.04318       97.18618       50.38028
C         71.27786       97.32697       51.29489
C         72.09630       96.01710       51.32816
C         73.50015       96.20132       51.91397
N         74.22246       94.92659       51.91896
H         68.48174       96.07570       48.73597
H         69.48864       95.26352       51.24828
H         69.56427       98.17612       50.20979
H         70.46190       96.87127       49.39956
H         71.00724       97.65821       52.32058
H         71.91468       98.11530       50.83471
H         72.22843       95.64415       50.28817
H         71.55743       95.24742       51.91718
H         73.43721       96.59651       52.95052
H         74.05998       96.93250       51.28790
H         73.74380       94.24724       52.55422
H         74.26582       94.52682       50.95250
H         75.19813       95.08093       52.26054
N         67.14974       97.70764       51.53397
C         66.14281       98.29906       52.41919
C         65.26700       97.20565       53.01737
O         65.06088       97.20111       54.22273
C         65.30200       99.34754       51.63406
C         66.18970      100.53897       51.19868
C         65.49510      101.57587       50.35957
O         64.92634      101.27538       49.32826
O         65.61805      102.87287       50.67020
H         67.15327       97.99192       50.54826
H         66.63280       98.84027       53.25893
H         64.47755       99.72706       52.27348
H         64.85110       98.86212       50.74130
H         67.03981      100.17261       50.59892
H         66.60943      101.03482       52.10018
N         64.79403       96.19858       52.23572
C         64.03246       95.06620       52.72225
H         63.07317       94.99934       52.16870
H         64.60928       94.13412       52.53573
H         63.81813       95.13285       53.80833
H         65.03518       96.20541       51.24471
Ca        63.93731      104.15598       48.70800
O         66.51906      102.71251       46.78377
H         67.40379      102.35832       46.51608
H         66.47675      103.60877       46.36788
O         63.75017      101.43943       45.94489
H         63.31987      100.55806       46.08108
H         63.96751      101.45853       44.97887

Ca 1.0



