%chk=holoCaM.loop4.water3.frame330.chk
%nprocshared=20
%mem=10GB
%nosave
#b3lyp/svp scf=(tight,noincore,xqc) Test 
#IOP(5/87=12) Density=Current Pop=(MK,readradii) iop(6/33=2) iop(6/42=6)

holoCaM.loop4.water3.frame330 

   -3  1 
C         17.69317       19.79639        0.01659
C         17.68122       18.81204        1.14746
O         16.60075       18.47763        1.60900
H         17.21225       20.74302        0.33976
H         18.72609       20.01323       -0.32506
H         17.12120       19.37438       -0.83776
N         18.84537       18.30231        1.64828
C         18.88310       17.29708        2.70740
C         20.31755       17.02467        3.14559
O         21.13842       16.66474        2.31281
C         18.23203       15.98319        2.22296
C         18.24748       14.94710        3.30331
O         18.79347       13.87256        3.11284
O         17.67353       15.21031        4.49269
H         19.73622       18.64389        1.25566
H         18.30920       17.68009        3.58027
H         18.76615       15.60255        1.32451
H         17.17355       16.14852        1.94353
N         20.66856       17.14694        4.45999
C         22.01836       16.90285        4.97114
C         22.08387       15.72329        5.95031
O         23.18246       15.42590        6.39972
C         22.58263       18.19828        5.64428
C         21.73658       18.64152        6.87374
C         22.70036       19.32619        4.60361
C         22.35173       19.79372        7.67077
H         19.93892       17.42479        5.13012
H         22.69818       16.63245        4.13353
H         23.61197       17.96731        5.99918
H         21.63582       17.78706        7.57638
H         20.72191       18.95206        6.55521
H         21.69908       19.62478        4.22638
H         23.19969       20.21817        5.03222
H         23.32049       18.98881        3.74647
H         22.41901       20.72010        7.06615
H         21.70790       20.01568        8.54883
H         23.36174       19.51278        8.03656
N         20.97335       15.03883        6.36451
C         21.01589       14.03049        7.43559
C         20.15710       12.77065        7.20007
O         20.29273       11.84114        7.98397
C         20.65893       14.68544        8.79169
C         19.29074       15.31279        8.82685
O         18.57087       15.43286        7.69716
O         18.83876       15.72460        9.88196
H         20.06813       15.34467        5.99869
H         22.05917       13.65812        7.53692
H         21.40518       15.46977        9.04430
H         20.71597       13.90249        9.57941
N         19.27892       12.64228        6.16486
C         18.55458       11.41037        5.85584
C         17.56350       10.94530        6.91333
O         17.71403        9.83792        7.40912
H         19.15797       13.42421        5.51747
H         19.29785       10.60540        5.66640
H         17.98173       11.55962        4.91507
N         16.49534       11.71601        7.26491
C         15.44339       11.29479        8.20490
C         14.03801       11.37635        7.59165
O         13.07348       11.19082        8.32108
C         15.56179       12.10015        9.52160
C         15.46691       13.58735        9.37178
O         15.15064       14.13339        8.18961
O         15.78968       14.30710       10.30204
H         16.43337       12.65062        6.83875
H         15.58845       10.23571        8.51142
H         16.57230       11.87953        9.93086
H         14.81465       11.75786       10.27029
N         13.84024       11.59610        6.25653
C         12.52390       11.65376        5.62481
C         11.72375       12.91360        5.92393
O         10.62230       13.02664        5.40182
H         14.65401       11.64982        5.63244
H         11.94020       10.74996        5.90460
H         12.66533       11.63424        4.52245
N         12.19799       13.90151        6.73126
C         11.49150       15.14167        7.03919
C         12.34890       16.35367        6.68919
O         13.47686       16.18439        6.24145
C         11.05500       15.13846        8.52348
C         12.21078       14.95523        9.52420
C         11.74956       14.92436       10.96121
N         12.64878       14.71131       11.94883
O         10.56992       15.07694       11.24425
H         13.11475       13.77374        7.15932
H         10.56047       15.21815        6.43434
H         10.34128       14.29679        8.66340
H         10.51165       16.07934        8.75370
H         12.95184       15.77412        9.40090
H         12.70308       13.98227        9.33083
H         13.64496       14.57055       11.73111
H         12.34847       14.67687       12.93389
N         11.86142       17.61615        6.85046
C         12.58399       18.83159        6.48539
C         12.80427       19.68687        7.72060
O         11.84522       19.99116        8.42000
C         11.78374       19.61786        5.40599
C         12.47689       20.94111        5.02852
C         11.60858       18.77346        4.13442
H         10.90723       17.73190        7.22807
H         13.57603       18.58972        6.04101
H         10.77417       19.86281        5.80536
H         13.49847       20.75518        4.63263
H         11.88821       21.48062        4.25612
H         12.54738       21.61268        5.90718
H         12.59777       18.52060        3.69512
H         11.06350       17.83287        4.35611
H         11.01973       19.33665        3.37888
N         14.04322       20.18691        7.98995
C         14.32951       21.12347        9.07184
C         14.50561       22.51210        8.47987
O         14.47482       22.65086        7.26943
C         15.59236       20.62994        9.81667
C         16.04171       21.46297       10.98884
N         15.25257       21.61065       12.07698
O         17.14577       21.98687       10.96773
H         14.80966       19.97585        7.33116
H         13.46922       21.17578        9.77424
H         16.42817       20.56331        9.08252
H         15.38459       19.61934       10.20854
H         14.32743       21.16071       12.12133
H         15.57512       22.16663       12.88249
N         14.62233       23.60441        9.27501
C         14.78339       24.96535        8.76484
C         16.08758       25.14455        7.99803
O         16.05250       25.74368        6.93167
C         14.56065       26.00447        9.88940
C         15.34744       25.76840       11.15856
C         14.67467       25.28420       12.29666
C         16.72564       26.01864       11.23571
C         15.36733       25.03595       13.48002
C         17.41833       25.77603       12.42792
C         16.73997       25.27905       13.55232
O         17.39272       25.03318       14.70547
H         14.54836       23.46058       10.28993
H         13.96111       25.18021        8.04300
H         13.48034       25.91537       10.14298
H         14.70368       27.04315        9.52055
H         13.61102       25.07964       12.26458
H         17.26288       26.40735       10.38118
H         14.83348       24.65012       14.33965
H         18.48111       25.97378       12.47697
H         18.34253       25.18730       14.80272
N         17.26457       24.60942        8.43825
C         18.53268       24.75594        7.71255
C         18.52789       24.05498        6.33886
O         19.50636       24.17279        5.61602
C         19.68738       24.22506        8.60669
C         21.11005       24.59819        8.14346
C         21.31367       26.08891        8.12534
O         21.16021       26.80512        9.25631
O         21.62255       26.65649        7.08994
H         17.25983       24.10285        9.33539
H         18.69239       25.84574        7.56143
H         19.60163       23.11960        8.69529
H         19.56773       24.65205        9.62734
H         21.33452       24.16445        7.14915
H         21.84147       24.16274        8.85708
N         17.45652       23.33192        5.90057
C         17.38414       22.63373        4.62399
C         16.39654       23.35361        3.72149
O         16.78348       23.77748        2.64135
C         16.94854       21.17094        4.86461
C         17.93759       20.41358        5.76980
C         17.47254       19.02571        6.12188
O         18.22434       18.26687        6.93899
O         16.41365       18.58523        5.70531
H         16.63080       23.25337        6.49368
H         18.37296       22.62896        4.11248
H         16.85862       20.63865        3.89167
H         15.95052       21.16934        5.35470
H         18.06199       20.96282        6.72690
H         18.92450       20.34984        5.26294
N         15.10762       23.55743        4.11074
C         14.14951       24.27964        3.30494
H         13.17851       24.34176        3.84331
H         14.51313       25.31276        3.11949
H         13.99012       23.75571        2.34022
H         14.79025       23.20719        5.01850
Ca        16.39589       15.83549        7.57964
O         14.93924       16.68309        3.91388
H         15.73070       17.21405        3.65451
H         14.40418       16.60900        3.08528
O         16.21042       17.45065        9.70691
H         15.56837       16.96146       10.27879
H         17.01975       17.56159       10.26369
O         15.24262       13.90046        4.70717
H         14.61685       13.91389        3.94132
H         15.94380       13.25390        4.43980

Ca 1.0



