%chk=holoCaM-CaMKII.loop4.water2.frame110.chk
%nprocshared=20
%mem=10GB
%nosave
#b3lyp/svp scf=(tight,noincore,xqc) Test 
#IOP(5/87=12) Density=Current Pop=(MK,readradii) iop(6/33=2) iop(6/42=6)

holoCaM-CaMKII.loop4.water2.frame110 

   -3  1 
C         41.74548       41.47563       83.41301
C         42.64168       41.69147       84.59563
O         42.37511       42.56436       85.40664
H         40.89683       42.19095       83.41911
H         42.32953       41.62031       82.47882
H         41.34695       40.43931       83.43215
N         43.74416       40.91263       84.74578
C         44.69524       41.04462       85.84387
C         45.34097       42.42773       85.82767
O         45.92079       42.79641       84.81508
C         45.74915       39.92404       85.70916
C         46.77623       39.94046       86.79519
O         47.95645       40.05561       86.51145
O         46.40838       39.79200       88.07883
H         43.90798       40.18227       84.03401
H         44.16227       40.88421       86.80463
H         46.25789       40.01041       84.72427
H         45.23431       38.93851       85.74852
N         45.29592       43.23537       86.93173
C         45.90077       44.56678       87.00337
C         47.09427       44.57998       87.95600
O         47.65675       45.63995       88.18060
C         44.85218       45.63935       87.46762
C         44.53565       45.55424       88.99217
C         43.57455       45.55662       86.61578
C         43.62942       46.67629       89.50428
H         44.84384       42.87560       87.78225
H         46.27082       44.86893       85.99897
H         45.31439       46.63701       87.29425
H         45.47576       45.66111       89.56953
H         44.10207       44.57025       89.24970
H         43.03889       44.60586       86.81617
H         42.88538       46.39438       86.84364
H         43.82471       45.61612       85.53639
H         44.08001       47.66644       89.27634
H         42.61557       46.61915       89.06234
H         43.52346       46.58796       90.60685
N         47.50137       43.43921       88.58490
C         48.45761       43.41242       89.68247
C         49.73287       42.73917       89.22721
O         50.80601       43.32148       89.31358
C         47.82914       42.59998       90.84979
C         46.45748       43.08824       91.21756
O         45.35872       42.30334       91.06592
O         46.32078       44.22391       91.64337
H         47.07436       42.54139       88.32996
H         48.69253       44.44275       90.03227
H         48.49800       42.63100       91.73754
H         47.70851       41.54202       90.54820
N         49.65745       41.48358       88.72796
C         50.76236       40.66944       88.27030
C         50.83632       39.39768       89.08863
O         51.91780       39.03273       89.52402
H         48.72232       41.07415       88.65447
H         51.73320       41.21107       88.30337
H         50.55992       40.39992       87.21239
N         49.70167       38.69046       89.36706
C         49.65601       37.44879       90.11948
C         48.85363       36.38518       89.36084
O         48.63705       35.31387       89.90994
C         49.12784       37.73658       91.54612
C         47.77505       38.38343       91.62946
O         46.78341       37.79505       91.24525
O         47.64370       39.59582       92.19953
H         48.79109       39.05675       89.06752
H         50.67936       37.04130       90.27063
H         49.85474       38.42326       92.03373
H         49.11143       36.79568       92.13591
N         48.42816       36.58734       88.07352
C         47.71843       35.59650       87.28108
C         46.26429       35.40006       87.65783
O         45.61407       34.62131       86.97470
H         48.68007       37.45148       87.57525
H         48.26842       34.63100       87.30683
H         47.70741       35.94613       86.22501
N         45.67146       36.05777       88.69754
C         44.26086       35.91203       89.03184
C         43.57368       37.30494       89.09049
O         44.00752       37.96176       90.26693
C         44.08410       35.16812       90.37823
C         44.62178       33.73390       90.34497
C         44.36345       33.05058       91.66510
N         45.38718       32.59935       92.42600
O         43.21332       32.90320       92.05282
H         46.23260       36.68460       89.27652
H         43.74891       35.30991       88.24913
H         42.99865       35.12162       90.61771
H         44.59788       35.72389       91.19246
H         45.71100       33.75423       90.12788
H         44.11336       33.15820       89.54143
H         46.36445       32.71331       92.12120
H         45.20118       32.13641       93.32822
N         42.11127       37.10948       89.16463
C         41.32603       38.28281       88.76214
C         40.18299       38.38906       89.75271
O         39.27405       37.56992       89.72928
C         40.80104       38.17357       87.29260
C         39.99717       39.41888       86.88550
C         41.94325       37.96239       86.28741
H         41.76245       36.24863       88.67979
H         41.96262       39.19215       88.85019
H         40.12578       37.29116       87.21674
H         40.63969       40.32318       86.91634
H         39.60296       39.29991       85.85295
H         39.12749       39.56782       87.55823
H         41.53416       37.87059       85.25774
H         42.65301       38.81327       86.31760
H         42.49442       37.02410       86.50345
N         40.22605       39.34206       90.71935
C         39.22319       39.49194       91.77027
C         37.93442       40.05134       91.17359
O         37.93417       40.41434       90.00963
C         39.85188       40.39673       92.87105
C         39.10612       40.53332       94.17929
N         39.62002       40.01290       95.31929
O         38.05977       41.15620       94.23149
H         41.05652       39.94339       90.74372
H         39.03816       38.49026       92.21819
H         40.06246       41.40753       92.46050
H         40.83656       39.93727       93.11167
H         40.51227       39.49749       95.31624
H         39.12146       40.12476       96.21446
N         36.79176       40.15301       91.90465
C         35.57184       40.78856       91.40522
C         35.84012       42.23517       91.00874
O         35.50223       42.61116       89.89510
C         34.47089       40.72079       92.48566
C         33.19582       41.42343       92.07357
C         32.48554       41.02685       90.92650
C         32.70690       42.49177       92.84478
C         31.31185       41.69309       90.55739
C         31.53220       43.15201       92.47686
C         30.83076       42.75559       91.33008
O         29.69673       43.38603       90.96337
H         36.78915       39.76868       92.85888
H         35.20734       40.23475       90.51126
H         34.86192       41.17463       93.42303
H         34.24076       39.65443       92.69954
H         32.83887       40.20660       90.31506
H         33.23390       42.81550       93.73367
H         30.77499       41.38276       89.66967
H         31.16956       43.97170       93.08422
H         29.33074       44.12327       91.47297
N         36.47398       43.08808       91.86373
C         36.78095       44.48486       91.55251
C         37.47357       44.62144       90.20583
O         37.05698       45.44134       89.39971
C         37.61031       45.13823       92.69399
C         39.02629       44.55882       92.88380
C         39.73013       45.17721       94.05588
O         40.15001       44.40197       95.07433
O         39.94793       46.37805       94.08192
H         36.77180       42.71442       92.77449
H         35.82320       45.04847       91.49775
H         37.04149       45.01961       93.64236
H         37.70600       46.22706       92.48804
H         39.64117       44.76196       91.98537
H         38.96877       43.46431       93.04555
N         38.50744       43.80154       89.88174
C         39.22039       43.84868       88.60981
C         38.26967       43.60323       87.45321
O         38.15643       44.46339       86.59057
C         40.35987       42.81182       88.63025
C         41.42497       43.22155       89.65866
C         42.44188       42.15182       89.86085
O         43.06651       41.70347       88.91751
O         42.66691       41.67906       91.10107
H         38.78340       43.09111       90.57616
H         39.67702       44.85617       88.47543
H         40.84651       42.75040       87.63273
H         39.94427       41.81144       88.87940
H         40.97999       43.42661       90.65043
H         41.90804       44.15212       89.30480
N         37.53164       42.46473       87.38062
C         36.58187       42.22211       86.31882
H         35.80621       43.01766       86.31904
H         37.10182       42.20525       85.33843
H         36.08175       41.24288       86.47826
H         37.62883       41.75317       88.11037
Ca        44.95882       40.10548       90.40415
O         44.00710       38.21418       93.12661
H         43.23387       37.67769       93.43281
H         44.72275       37.54918       92.96780
O         44.16943       41.11130       93.77829
H         44.57854       42.01156       93.73248
H         43.19644       41.28277       93.84534

Ca 1.0



