%chk=holoCaM.loop4.water3.frame269.chk
%nprocshared=20
%mem=10GB
%nosave
#b3lyp/svp scf=(tight,noincore,xqc) Test 
#IOP(5/87=12) Density=Current Pop=(MK,readradii) iop(6/33=2) iop(6/42=6)

holoCaM.loop4.water3.frame269 

   -3  1 
C         37.57076      -26.21858       72.03895
C         36.13579      -26.24134       71.62928
O         35.82768      -25.71697       70.57171
H         38.17066      -25.62600       71.31372
H         37.67788      -25.79099       73.05320
H         37.95045      -27.26355       72.02488
N         35.21535      -26.91688       72.37714
C         33.88594      -27.22218       71.86779
C         32.78023      -27.00465       72.90937
O         33.05449      -27.06006       74.10015
C         33.98227      -28.70845       71.44768
C         32.95457      -29.19818       70.49711
O         33.00488      -30.34802       70.09317
O         31.94867      -28.41152       70.12577
H         35.53411      -27.39217       73.23555
H         33.67606      -26.59836       70.97049
H         34.00138      -29.35162       72.35398
H         34.93623      -28.84793       70.89582
N         31.48418      -26.82123       72.51030
C         30.33157      -26.80421       73.41872
C         29.04248      -27.41318       72.79485
O         28.04744      -27.49516       73.50047
C         30.15467      -25.36600       74.02459
C         29.32300      -25.30879       75.32964
C         29.54238      -24.37742       73.01964
C         29.94899      -26.09188       76.48536
H         31.33982      -26.68068       71.51543
H         30.58729      -27.49951       74.24015
H         31.16717      -24.98826       74.29207
H         28.28253      -25.65157       75.16063
H         29.27522      -24.24698       75.66219
H         29.50601      -23.35392       73.45246
H         30.15413      -24.31595       72.11385
H         28.50788      -24.67416       72.74255
H         29.34253      -25.93953       77.40174
H         29.97340      -27.17971       76.28337
H         30.98146      -25.72880       76.67963
N         28.97801      -27.85391       71.49460
C         27.78276      -28.38606       70.84040
C         28.06031      -29.59156       69.91440
O         27.10407      -30.10121       69.34642
C         27.07189      -27.24283       70.07104
C         27.88488      -26.53466       69.01427
O         29.16436      -26.85351       68.77570
O         27.37295      -25.63683       68.36813
H         29.78021      -27.74024       70.88884
H         27.06044      -28.73921       71.60959
H         26.74696      -26.47820       70.80861
H         26.16170      -27.65238       69.58195
N         29.30846      -30.11766       69.71542
C         29.58120      -31.27839       68.87522
C         29.29551      -31.10855       67.38806
O         29.36828      -32.11335       66.69405
H         30.10265      -29.74475       70.23208
H         28.96960      -32.12288       69.25926
H         30.64997      -31.57207       68.97752
N         28.93915      -29.91806       66.81635
C         28.49340      -29.83473       65.42063
C         29.54963      -30.19479       64.36873
O         29.15843      -30.49129       63.24813
C         27.86010      -28.46402       65.09099
C         28.79415      -27.29233       65.16465
O         30.04300      -27.42772       65.63402
O         28.40331      -26.19311       64.80951
H         28.89380      -29.07557       67.40421
H         27.67169      -30.57833       65.32135
H         27.01647      -28.26406       65.78571
H         27.45697      -28.51207       64.05758
N         30.88620      -30.16064       64.63473
C         31.92507      -30.51557       63.66764
C         32.88606      -29.37618       63.34607
O         33.78564      -29.59172       62.54592
H         31.17788      -29.86538       65.56829
H         31.47892      -30.85931       62.70957
H         32.51252      -31.36092       64.08506
N         32.76983      -28.14649       63.92350
C         33.61656      -27.00005       63.60362
C         33.69529      -26.01026       64.76448
O         32.78365      -25.92451       65.57359
C         33.11981      -26.29343       62.31700
C         31.59629      -26.02647       62.33414
C         31.07009      -25.40712       61.06129
N         29.73700      -25.22650       60.90786
O         31.83018      -25.08475       60.15956
H         32.01517      -27.99610       64.59027
H         34.65906      -27.35634       63.44200
H         33.33347      -26.95152       61.44850
H         33.68228      -25.34229       62.17092
H         31.32310      -25.37695       63.19311
H         31.07314      -27.00014       62.44507
H         29.07979      -25.50850       61.65059
H         29.35687      -24.82130       60.03939
N         34.81336      -25.24483       64.91033
C         34.98691      -24.22973       65.94735
C         34.19285      -22.99130       65.57472
O         34.38495      -22.47644       64.48162
C         36.50544      -23.91238       66.13041
C         36.75441      -22.70452       67.05152
C         37.23289      -25.13671       66.72202
H         35.58399      -25.38725       64.23864
H         34.63470      -24.60716       66.92693
H         36.95369      -23.66737       65.14234
H         36.32303      -22.86976       68.06142
H         37.84689      -22.52414       67.15214
H         36.31558      -21.78414       66.61413
H         36.82158      -25.38761       67.72492
H         37.12545      -26.02607       66.06760
H         38.31721      -24.92680       66.84162
N         33.33748      -22.41782       66.47493
C         32.62575      -21.17093       66.22760
C         33.28202      -20.03946       67.01414
O         34.25688      -20.27756       67.71113
C         31.09880      -21.33074       66.49369
C         30.66473      -21.25989       67.94614
N         29.96396      -22.24275       68.54946
O         30.89497      -20.24904       68.57660
H         33.24818      -22.83417       67.40415
H         32.72833      -20.90503       65.15360
H         30.74633      -22.26470       66.00869
H         30.57577      -20.49162       65.98952
H         29.69841      -23.09114       68.05085
H         29.65872      -22.13623       69.52959
N         32.81402      -18.76672       66.91282
C         33.44140      -17.61032       67.55322
C         33.47636      -17.71972       69.07459
O         34.53533      -17.52827       69.65277
C         32.70348      -16.33254       67.12299
C         33.39335      -15.09328       67.62807
C         34.70380      -14.79202       67.21632
C         32.73231      -14.22693       68.51019
C         35.34144      -13.64119       67.68219
C         33.37187      -13.07541       68.97448
C         34.67903      -12.77815       68.56037
O         35.30524      -11.66777       68.99669
H         31.99254      -18.60893       66.30970
H         34.48701      -17.54029       67.18014
H         31.65315      -16.38352       67.48526
H         32.67607      -16.27927       66.01259
H         35.23252      -15.44439       66.53220
H         31.72362      -14.44355       68.83954
H         36.35031      -13.42018       67.35687
H         32.84940      -12.41576       69.65463
H         34.87789      -11.04110       69.59731
N         32.35583      -18.02222       69.78446
C         32.33597      -18.23724       71.23207
C         33.32906      -19.32654       71.64224
O         34.08640      -19.11731       72.57895
C         30.89941      -18.59995       71.68657
C         30.76735      -18.63943       73.21861
C         29.35846      -18.93955       73.64665
O         29.10020      -20.02351       74.40316
O         28.44513      -18.19218       73.33299
H         31.47757      -18.12358       69.26068
H         32.61235      -17.28618       71.73791
H         30.59196      -19.57804       71.25264
H         30.20455      -17.81852       71.30517
H         31.05804      -17.65219       73.63899
H         31.44306      -19.41546       73.63581
N         33.37953      -20.51369       70.97537
C         34.30191      -21.60317       71.31348
C         35.76363      -21.27249       71.01430
O         36.62805      -22.01899       71.45287
C         33.93946      -22.84331       70.48120
C         32.55485      -23.40946       70.83961
C         32.04081      -24.39076       69.81801
O         30.82246      -24.93165       69.96749
O         32.68160      -24.66357       68.82026
H         32.72712      -20.64461       70.19052
H         34.19562      -21.84006       72.39505
H         34.68418      -23.64516       70.61797
H         33.97671      -22.52691       69.42154
H         31.80562      -22.59591       70.89889
H         32.62056      -23.89391       71.83893
N         36.11033      -20.22809       70.21438
C         37.46768      -19.90690       69.82520
H         38.21287      -20.60040       70.26537
H         37.54812      -19.96214       68.71788
H         37.70649      -18.87083       70.14413
H         35.37552      -19.64799       69.81532
Ca        31.29376      -27.32938       68.29451
O         32.85701      -29.77060       67.26748
H         32.08617      -29.64755       67.87203
H         32.72843      -30.69091       66.92918
O         34.29849      -27.05252       68.08396
H         34.58685      -26.20577       68.50146
H         35.05931      -27.66412       68.23756
O         30.38074      -24.90564       66.65857
H         29.98463      -24.53673       65.83252
H         29.59407      -25.10412       67.21935

Ca 1.0



