%chk=holoCaM.loop1.water2.frame460.chk
%nprocshared=20
%mem=10GB
%nosave
#b3lyp/svp scf=(tight,noincore,xqc) Test 
#IOP(5/87=12) Density=Current Pop=(MK,readradii) iop(6/33=2) iop(6/42=6)

holoCaM.loop1.water2.frame460 

   0  1 
C         18.89957       89.76610       33.15391
C         18.38919       91.13213       32.81842
O         17.20601       91.38188       33.00803
H         19.70642       89.84109       33.91220
H         18.08073       89.13752       33.56785
H         19.29158       89.28352       32.23579
N         19.23170       92.08671       32.32689
C         18.75754       93.42774       32.03285
C         18.13575       93.49931       30.64477
O         18.80552       93.27317       29.64709
C         19.84520       94.48883       32.20085
C         19.21296       95.82608       31.94122
O         19.63576       96.53259       31.04699
O         18.11008       96.19958       32.62541
H         20.23350       91.86633       32.21648
H         18.00515       93.69000       32.81320
H         20.69001       94.30953       31.49900
H         20.23789       94.46312       33.24087
N         16.82407       93.82268       30.54587
C         16.04976       93.87704       29.31380
C         16.34990       95.08206       28.41813
O         15.99171       95.01340       27.25080
C         14.55698       93.93543       29.72126
C         13.55406       93.74054       28.58459
C         12.12913       93.79554       29.14656
C         11.09483       93.52458       28.05284
N          9.73985       93.57466       28.59917
H         16.32683       93.93646       31.43374
H         16.22681       92.92695       28.76300
H         14.35708       94.91034       30.21751
H         14.37046       93.12288       30.45980
H         13.73678       92.74918       28.11651
H         13.66215       94.53490       27.81841
H         11.94744       94.80037       29.59047
H         12.01489       93.02985       29.94568
H         11.27841       92.51665       27.61830
H         11.19711       94.28323       27.24557
H          9.62906       92.85724       29.35259
H          9.54463       94.52605       28.98763
H          9.05627       93.37178       27.83507
N         16.83126       96.26680       28.90920
C         16.76571       97.51793       28.13939
C         18.12014       98.14029       27.83079
O         18.12918       99.23683       27.28479
C         15.90021       98.54577       28.90097
C         14.55449       98.00393       29.29173
O         14.21007       97.93949       30.59198
O         13.76601       97.62972       28.43917
H         17.13430       96.32125       29.89189
H         16.26816       97.35262       27.15871
H         15.74741       99.45325       28.27643
H         16.43553       98.86316       29.80915
N         19.30229       97.50882       28.07835
C         20.57388       98.11312       27.70413
C         21.01686       99.24247       28.61868
O         21.97442       99.91638       28.26694
H         19.30461       96.54953       28.45232
H         20.50429       98.46930       26.65210
H         21.37767       97.34725       27.73437
N         20.45536       99.43955       29.84787
C         20.95568      100.41109       30.82121
C         21.75109       99.70978       31.93933
O         22.20999      100.39217       32.84410
C         19.78268      101.28344       31.34290
C         18.77764      100.45158       32.07315
O         17.53867      100.25445       31.60294
O         19.11844       99.83904       33.06400
H         19.69961       98.81309       30.15336
H         21.67512      101.10785       30.33868
H         19.29383      101.77905       30.47682
H         20.16114      102.07222       32.02820
N         22.02888       98.36850       31.89298
C         22.92832       97.68553       32.81541
C         22.42488       97.45524       34.22896
O         23.20645       96.91670       35.00312
H         21.70791       97.81227       31.09182
H         23.88674       98.24731       32.85077
H         23.15453       96.67750       32.40207
N         21.17459       97.79612       34.65809
C         20.71506       97.57454       36.03344
C         19.48688       96.67762       36.07794
O         18.96527       96.31623       35.03535
C         20.42511       98.92298       36.73691
C         21.66351       99.83460       36.77368
O         19.32609       99.57354       36.14867
H         20.52649       98.22818       33.99285
H         21.50633       97.05850       36.62108
H         20.15588       98.72377       37.79560
H         19.65416      100.12318       35.39394
H         21.99208      100.10000       35.74590
H         21.41978      100.77226       37.31623
H         22.50048       99.32557       37.29546
N         18.98685       96.24928       37.26816
C         17.82838       95.37128       37.41189
C         16.78706       96.05066       38.29559
O         17.11219       96.49237       39.39065
C         18.30028       93.98016       37.93942
C         19.11341       93.28356       36.80547
C         17.11343       93.09823       38.37379
C         19.66397       91.90031       37.14997
H         19.47866       96.52677       38.13327
H         17.34475       95.17283       36.42992
H         18.94001       94.12880       38.83743
H         19.97851       93.92224       36.52860
H         18.46958       93.17133       35.90296
H         17.46778       92.13854       38.80026
H         16.53285       93.58929       39.18097
H         16.44449       92.88372       37.52011
H         18.84730       91.17522       37.34282
H         20.24089       91.51541       36.28133
H         20.33529       91.95852       38.03057
N         15.48672       96.10487       37.88555
C         14.38336       96.67944       38.64634
C         13.56638       95.56333       39.27824
O         13.93720       94.40335       39.15400
C         13.49919       97.57358       37.72723
C         14.27208       98.76522       37.14836
O         12.88869       96.81057       36.71205
H         15.24001       95.63311       37.00993
H         14.76741       97.30330       39.48333
H         12.68069       98.02516       38.32292
H         13.50446       96.76166       35.93763
H         14.67138       99.39702       37.96907
H         15.11167       98.41197       36.51692
H         13.59103       99.38588       36.52704
N         12.44386       95.84508       39.99537
C         11.64279       94.83345       40.67964
C         11.18121       93.75880       39.70728
O         11.42458       92.58798       39.95790
C         10.43151       95.49764       41.38396
C          9.65249       94.49712       42.24330
O         10.88951       96.53383       42.21639
H         12.15074       96.83047       40.07158
H         12.27503       94.36156       41.46572
H          9.75515       95.91372       40.59835
H         10.18558       97.23478       42.22379
H         10.31271       94.08260       43.03565
H          8.79635       95.00985       42.73041
H          9.25604       93.66302       41.62841
N         10.51603       94.09715       38.56916
C         10.04734       93.12251       37.58889
C         11.19694       92.31295       37.01037
O         11.11248       91.09203       37.01143
C          9.24453       93.84665       36.48405
C          8.62459       92.86988       35.46622
C          7.62428       93.54339       34.50532
C          6.36032       94.12175       35.18263
N          5.59377       93.10162       35.90378
H         10.33582       95.09798       38.39456
H          9.33466       92.42792       38.08875
H          9.87420       94.59244       35.94910
H          8.43227       94.38896       37.00778
H          8.11002       92.04109       35.99335
H          9.44322       92.41700       34.86538
H          7.29491       92.78367       33.76336
H          8.13865       94.35724       33.94946
H          5.71481       94.55879       34.38918
H          6.62069       94.94933       35.87501
H          5.34488       92.31352       35.26294
H          6.13349       92.74121       36.72239
H          4.71277       93.53051       36.26836
N         12.30084       92.92467       36.49426
C         13.38553       92.18447       35.84126
C         14.08897       91.20944       36.78671
O         14.82248       90.36090       36.29855
C         14.44105       93.14317       35.23370
C         13.84153       94.16192       34.24496
C         14.85553       95.16145       33.76243
O         14.96868       95.38543       32.57389
O         15.57340       95.89413       34.63091
H         12.34133       93.95083       36.55411
H         12.92818       91.59606       35.01465
H         15.23312       92.55624       34.71766
H         14.91232       93.69169       36.06775
H         13.05135       94.75491       34.73451
H         13.38188       93.62956       33.38396
N         13.94006       91.28410       38.14165
C         14.56876       90.37475       39.07873
H         15.25441       90.94304       39.74188
H         13.78459       89.90001       39.70606
H         15.14559       89.57276       38.57369
H         13.37060       92.03185       38.54897
Ca        17.08876       98.10717       32.05462
O         13.95406       98.51427       33.64682
H         13.55380       97.67261       33.31443
H         13.19423       99.00066       34.05350
O         16.58120       99.83193       34.80703
H         16.22632      100.67989       34.44035
H         16.73432      100.02421       35.76593

Ca 1.0



