%chk=holoCaM-CaMKII.loop1.water2.frame217.chk
%nprocshared=20
%mem=10GB
%nosave
#b3lyp/svp scf=(tight,noincore,xqc) Test 
#IOP(5/87=12) Density=Current Pop=(MK,readradii) iop(6/33=2) iop(6/42=6)

holoCaM-CaMKII.loop1.water2.frame217 

   0  1 
C         15.97981       65.09253       53.11102
C         15.35555       65.44921       54.42677
O         14.24196       65.95182       54.43570
H         16.99064       64.65316       53.24895
H         15.34159       64.35611       52.58065
H         16.07856       66.00932       52.49263
N         16.01695       65.20593       55.59090
C         15.47877       65.55926       56.89905
C         15.37772       67.07466       57.01161
O         16.41260       67.72305       57.07634
C         16.39582       64.93231       57.98184
C         16.12183       65.24941       59.42787
O         14.93961       64.98751       60.01192
O         17.02918       65.68975       60.11430
H         16.93441       64.73586       55.53747
H         14.47654       65.10191       56.97553
H         17.44542       65.23915       57.77433
H         16.34505       63.82859       57.86483
N         14.16301       67.71071       56.97510
C         14.02067       69.16714       57.03440
C         13.18598       69.64765       58.21257
O         13.08558       70.85543       58.38170
C         13.50874       69.74062       55.69694
C         14.53457       69.48129       54.58047
C         14.30265       70.36307       53.35024
C         15.41653       70.13131       52.31684
N         15.32731       71.09125       51.21833
H         13.30870       67.14916       56.85432
H         15.01384       69.63429       57.20804
H         13.42520       70.84210       55.82608
H         12.50492       69.34715       55.42127
H         14.53202       68.40968       54.30274
H         15.54498       69.74072       54.96567
H         14.34030       71.42577       53.67700
H         13.30752       70.16297       52.89713
H         15.34800       69.09320       51.92176
H         16.40979       70.25208       52.80569
H         15.44644       72.06308       51.58822
H         16.09650       70.89999       50.53614
H         14.40580       71.00669       50.73295
N         12.66644       68.78879       59.13327
C         12.17125       69.23933       60.43180
C         13.21049       68.93525       61.51145
O         12.99034       69.31133       62.65416
C         10.76698       68.67888       60.73902
C         10.64328       67.21223       60.47571
O         11.39442       66.42592       61.01878
O          9.71684       66.76426       59.60744
H         12.77286       67.77375       58.99551
H         12.07364       70.34601       60.46488
H         10.02281       69.19647       60.09721
H         10.50451       68.89676       61.79818
N         14.40807       68.34821       61.20966
C         15.50059       68.21567       62.15293
C         15.16609       67.33612       63.32707
O         15.34844       67.75692       64.45979
H         14.61233       68.03047       60.25194
H         15.82613       69.22252       62.49254
H         16.36277       67.75349       61.62341
N         14.72611       66.06925       63.11542
C         14.55136       65.07055       64.15748
C         15.53023       63.90674       63.95512
O         15.42801       62.92287       64.67450
C         13.07846       64.60653       64.24066
C         12.47909       64.07560       62.97065
O         13.05749       63.23810       62.30672
O         11.23539       64.44635       62.62027
H         14.55610       65.77378       62.14974
H         14.78727       65.49108       65.15932
H         12.44486       65.45325       64.58540
H         13.01105       63.81340       65.01383
N         16.56246       63.98596       63.06008
C         17.58767       62.96312       62.91242
C         17.15622       61.72844       62.14874
O         18.00384       60.86386       61.96523
H         16.70880       64.85170       62.52592
H         17.98818       62.68970       63.91308
H         18.42759       63.39901       62.32840
N         15.89578       61.56310       61.65363
C         15.49120       60.40394       60.86026
C         14.92478       60.83359       59.51160
O         14.70819       62.01929       59.28772
C         14.46247       59.54335       61.63636
C         15.05593       58.94173       62.92058
O         13.30154       60.28044       61.92191
H         15.19280       62.28733       61.83414
H         16.37412       59.76152       60.64600
H         14.16170       58.68149       61.00341
H         13.47915       60.83872       62.72271
H         15.92733       58.29940       62.67543
H         15.38274       59.73894       63.62200
H         14.28852       58.31935       63.42872
N         14.69228       59.89982       58.54681
C         14.14664       60.18725       57.22161
C         12.91867       59.31734       56.99625
O         12.96832       58.12824       57.29009
C         15.21819       59.93564       56.11640
C         16.44905       60.85176       56.35484
C         14.61613       60.19555       54.71588
C         17.58412       60.65025       55.34758
H         14.94756       58.91959       58.75152
H         13.85650       61.25825       57.13258
H         15.54490       58.87303       56.16525
H         16.86888       60.63952       57.36082
H         16.13703       61.91873       56.32562
H         13.75744       59.52418       54.52477
H         14.27596       61.25010       54.62282
H         15.34254       59.97746       53.90963
H         18.44071       61.29974       55.62503
H         17.92105       59.59241       55.35154
H         17.27696       60.93867       54.32206
N         11.81051       59.82740       56.39007
C         10.61902       59.04623       56.07947
C         10.48344       58.87498       54.58099
O         11.27072       59.42844       53.82749
C          9.34474       59.73496       56.64416
C          9.37469       59.86285       58.16818
O          9.13570       60.98800       56.03954
H         11.83785       60.80167       56.06643
H         10.69872       58.02690       56.51715
H          8.45514       59.11449       56.40880
H          9.70046       61.65602       56.50366
H          9.44514       58.85983       58.63660
H         10.24533       60.47476       58.47676
H          8.44325       60.35898       58.51789
N          9.48429       58.10899       54.07684
C          9.20988       57.97247       52.65063
C          8.83497       59.32350       52.06217
O          9.35638       59.69170       51.02019
C          8.06642       56.95469       52.40883
C          8.48551       55.53988       52.83474
O          6.90968       57.34310       53.10655
H          8.86915       57.62362       54.74810
H         10.10822       57.58340       52.11863
H          7.85552       56.93622       51.31392
H          6.15683       56.81104       52.73910
H          7.66655       54.82250       52.61880
H          9.38601       55.22225       52.26707
H          8.71311       55.49090       53.91967
N          7.93918       60.11901       52.71060
C          7.46009       61.40606       52.21418
C          8.61658       62.35089       51.92395
O          8.69743       62.88191       50.82520
C          6.47328       61.99958       53.25066
C          5.63023       63.15438       52.68864
C          4.58159       63.69605       53.68388
C          3.57764       62.62975       54.16985
N          2.52161       63.22880       54.98582
H          7.57444       59.78244       53.61484
H          6.89412       61.22080       51.27473
H          7.01211       62.31099       54.17382
H          5.76832       61.18650       53.51682
H          5.09415       62.79154       51.78431
H          6.29623       63.99058       52.38609
H          4.01728       64.49771       53.15917
H          5.09001       64.14760       54.56297
H          4.10192       61.86492       54.78247
H          3.11282       62.12441       53.29459
H          1.96952       63.90810       54.41357
H          1.87933       62.47412       55.32117
H          2.93371       63.71495       55.81484
N          9.57730       62.55933       52.86286
C         10.74710       63.41624       52.67317
C         11.56849       62.95260       51.48054
O         11.79678       63.75046       50.58203
C         11.59267       63.43844       53.96618
C         10.79434       64.10067       55.10941
C         11.52230       64.06096       56.41116
O         11.86449       63.00154       56.90354
O         11.78054       65.19284       57.07198
H          9.47725       62.04942       53.75116
H         10.41818       64.46168       52.47703
H         12.52746       64.01728       53.80308
H         11.87777       62.39752       54.23660
H          9.82627       63.59228       55.26654
H         10.58070       65.15784       54.84140
N         12.01041       61.66836       51.38730
C         12.75137       61.15167       50.25300
H         13.71814       60.73251       50.60086
H         12.16349       60.34134       49.77113
H         12.95883       61.93016       49.48907
H         11.78631       61.01045       52.14028
Ca        13.01927       64.89855       58.90026
O          9.62876       63.68010       59.48206
H          9.11160       64.32918       58.94371
H          9.02892       63.45228       60.23627
O         10.95831       61.42486       60.79625
H         11.04920       61.62006       61.76099
H         10.01124       61.15719       60.69892

Ca 1.0



