%chk=holoCaM-CaMKII.loop2.water2.frame417.chk
%nprocshared=20
%mem=10GB
%nosave
#b3lyp/svp scf=(tight,noincore,xqc) Test 
#IOP(5/87=12) Density=Current Pop=(MK,readradii) iop(6/33=2) iop(6/42=6)

holoCaM-CaMKII.loop2.water2.frame417 

   -2  1 
C         60.63189       68.88122       18.11793
C         61.83606       68.56364       17.27188
O         62.94640       68.85963       17.68228
H         59.69084       68.54219       17.63239
H         60.71688       68.35732       19.09415
H         60.56186       69.97359       18.29401
N         61.68284       67.92631       16.08113
C         62.78691       67.47207       15.23949
C         63.63250       68.60657       14.67283
O         63.07720       69.50063       14.04931
C         62.21215       66.64725       14.07412
C         63.31047       66.10758       13.21794
O         64.28356       65.36920       13.77976
O         63.34748       66.36768       12.02623
H         60.72064       67.69367       15.78729
H         63.42827       66.79018       15.84011
H         61.52169       67.26819       13.46064
H         61.63641       65.79198       14.48520
N         65.00012       68.57334       14.77927
C         65.87971       69.57307       14.17490
C         66.88168       69.00504       13.15186
O         67.52632       69.81997       12.50610
C         66.64172       70.30118       15.28747
H         65.43486       67.80561       15.30829
H         65.26805       70.32690       13.63362
H         65.92584       70.76380       16.00014
H         67.28563       69.58712       15.84619
H         67.28209       71.10557       14.86649
N         67.11969       67.66519       12.97061
C         68.13943       67.14728       12.03254
C         67.64466       66.03959       11.09337
O         68.41026       65.65045       10.22141
C         69.37526       66.63795       12.81096
C         68.97238       65.71182       13.91547
O         69.21066       66.02430       15.07178
O         68.18669       64.64802       13.67623
H         66.63072       66.99395       13.57752
H         68.49605       67.96407       11.36798
H         69.88994       67.51207       13.26801
H         70.09930       66.14516       12.12713
N         66.41207       65.47371       11.19682
C         65.92428       64.43691       10.29765
C         66.71949       63.14639       10.36980
O         67.24295       62.72522        9.34804
H         65.77344       65.80348       11.92177
H         65.92856       64.83010        9.25692
H         64.87188       64.19613       10.55990
N         66.81879       62.44587       11.53759
C         67.49824       61.15144       11.65535
C         66.56487       60.03659       12.15129
O         67.04695       58.94203       12.40865
C         68.76043       61.27880       12.53842
C         68.54805       61.63856       13.98559
N         69.61478       61.70087       14.81155
O         67.43395       61.86986       14.42486
H         66.38494       62.84950       12.37982
H         67.87930       60.82023       10.66442
H         69.43425       62.03966       12.08779
H         69.29399       60.30328       12.51582
H         70.56496       61.50810       14.46362
H         69.49055       61.93023       15.80358
N         65.21605       60.21881       12.25789
C         64.27889       59.18271       12.68300
C         64.28526       58.86928       14.17311
O         63.46585       58.05754       14.58328
H         64.80860       61.10481       11.93846
H         64.44523       58.26021       12.08634
H         63.25140       59.54402       12.45912
N         65.13440       59.47463       15.04836
C         65.11573       59.27486       16.49736
C         64.88719       60.60018       17.20947
O         64.79051       61.63351       16.55556
C         66.45343       58.63195       16.96285
C         66.52801       57.15939       16.56092
O         67.55805       59.31359       16.42417
H         65.82683       60.13477       14.68175
H         64.27865       58.60926       16.80631
H         66.52958       58.62401       18.07290
H         67.61953       60.18572       16.89222
H         65.69544       56.59878       17.04071
H         66.46288       57.03677       15.46078
H         67.48398       56.72099       16.92025
N         64.81523       60.63963       18.57046
C         64.68823       61.86556       19.34655
C         66.00134       62.07800       20.07624
O         66.46986       61.17108       20.75443
C         63.47235       61.81459       20.31931
C         62.16467       61.53280       19.53134
C         63.37127       63.14740       21.09383
C         60.90149       61.50451       20.39683
H         64.90606       59.75661       19.09865
H         64.51875       62.73168       18.67239
H         63.62707       60.99359       21.05439
H         62.25330       60.54143       19.03729
H         62.02156       62.30070       18.74304
H         62.56408       63.11851       21.85204
H         64.30580       63.35807       21.65245
H         63.17394       63.98526       20.39219
H         60.02855       61.23452       19.76596
H         61.00102       60.75793       21.21189
H         60.68983       62.50357       20.83097
N         66.64804       63.26992       19.97788
C         67.95589       63.55066       20.55258
C         67.80987       64.43467       21.76778
O         66.68884       64.73882       22.14709
C         68.84364       64.22581       19.48639
C         69.05217       63.34574       18.29100
O         68.10356       62.99578       17.60690
O         70.29680       62.95312       17.96017
H         66.18152       64.03903       19.47942
H         68.44727       62.61417       20.89950
H         69.83890       64.46142       19.91572
H         68.37820       65.18010       19.15382
N         68.89976       64.83991       22.47480
C         68.79816       65.61971       23.69949
C         68.16250       66.99351       23.45369
O         67.22284       67.30399       24.16974
C         70.16527       65.71250       24.41833
C         70.02834       66.16314       25.85171
C         69.34442       65.35392       26.77895
C         70.60058       67.36930       26.28645
C         69.23439       65.74604       28.11424
C         70.48431       67.75994       27.62486
C         69.80327       66.94871       28.53753
H         69.83438       64.53158       22.16287
H         68.13764       65.04189       24.38423
H         70.86245       66.37016       23.87301
H         70.63429       64.70454       24.44941
H         68.90664       64.41174       26.47256
H         71.13475       68.00596       25.59248
H         68.71188       65.11357       28.82066
H         70.92586       68.69027       27.95617
H         69.71884       67.24924       29.57352
N         68.56222       67.86007       22.45521
C         67.94664       69.17139       22.20860
C         66.46790       69.14950       21.83083
O         65.90155       70.21284       21.61409
C         68.71886       69.71621       20.99691
C         70.06569       69.05440       21.14548
C         69.65940       67.63901       21.53610
H         68.11908       69.79413       23.11418
H         68.28281       69.29539       20.05885
H         68.72308       70.82401       20.90949
H         70.71508       69.11519       20.24650
H         70.58829       69.52619       22.00841
H         69.27419       67.07656       20.65674
H         70.53813       67.12635       21.95452
N         65.79541       67.97809       21.68695
C         64.42991       67.84209       21.21416
C         63.54839       67.40320       22.36675
O         62.50644       68.00556       22.58043
C         64.39408       66.79880       20.07873
C         65.40060       67.11288       18.95863
C         65.41436       66.06788       17.88350
O         66.36856       66.13319       16.94786
O         64.61550       65.14736       17.86874
H         66.28757       67.10140       21.86282
H         64.04280       68.80468       20.80945
H         63.36379       66.73512       19.66457
H         64.67033       65.80705       20.49596
H         66.42373       67.13222       19.39067
H         65.20357       68.10473       18.50298
N         63.93427       66.38765       23.19047
C         63.15767       65.96264       24.33036
H         62.19044       65.54113       23.99035
H         63.71565       65.17942       24.88921
H         62.98402       66.82104       25.01333
H         64.83071       65.91628       23.03713
Ca        66.71360       64.59683       15.35087
O         63.87060       62.67993       13.59594
H         64.01684       63.13700       12.72979
H         63.00804       62.21120       13.47751
O         62.81862       63.83965       16.02381
H         62.61350       63.74251       16.98580
H         61.97506       63.59782       15.56705

Ca 1.0



