%chk=holoCaM-CaMKII.loop3.water2.frame128.chk
%nprocshared=20
%mem=10GB
%nosave
#b3lyp/svp scf=(tight,noincore,xqc) Test 
#IOP(5/87=12) Density=Current Pop=(MK,readradii) iop(6/33=2) iop(6/42=6)

holoCaM-CaMKII.loop3.water2.frame128 

   0  1 
C         21.53573       39.72239       82.08242
C         20.91088       38.89027       83.15802
O         19.70246       38.70447       83.15047
H         22.29149       39.11971       81.53630
H         20.76840       40.08023       81.36414
H         22.03310       40.60045       82.54564
N         21.69556       38.33859       84.12267
C         21.16135       37.53361       85.21275
C         20.31016       38.42767       86.10169
O         20.86543       39.30181       86.75182
C         22.35863       36.85177       85.94209
C         22.13267       35.89794       87.09538
O         22.95037       35.89922       88.00077
O         21.18926       34.93263       87.09937
H         22.71549       38.48553       84.05710
H         20.54007       36.74680       84.75745
H         23.05237       37.64510       86.30165
H         22.92113       36.27342       85.17960
N         18.94655       38.29733       86.13972
C         18.08443       39.11794       86.99142
C         17.45451       38.20958       88.02948
O         16.24048       38.12455       88.14786
C         17.03722       39.91274       86.17678
C         17.67301       40.96775       85.25470
C         16.59004       41.86658       84.62848
C         17.15797       43.01083       83.76945
N         17.83044       42.52716       82.56328
H         18.49729       37.56611       85.56792
H         18.68299       39.86190       87.56120
H         16.39419       40.45364       86.90700
H         16.39266       39.22558       85.58516
H         18.26643       40.45876       84.46980
H         18.35055       41.61238       85.85644
H         16.01426       42.33863       85.45542
H         15.88514       41.25852       84.02115
H         17.85887       43.62917       84.37361
H         16.31070       43.66457       83.46271
H         18.67338       41.96162       82.80778
H         17.16803       41.95654       81.98926
H         18.13938       43.35041       81.99695
N         18.29554       37.49962       88.82806
C         17.90761       36.58783       89.90694
C         19.12291       35.99635       90.65303
O         18.93990       35.57973       91.78822
C         16.92520       35.48468       89.44508
C         17.43820       34.67154       88.29080
O         18.54226       33.91866       88.42155
O         16.83686       34.67457       87.22834
H         19.28317       37.69386       88.65753
H         17.36673       37.20974       90.65533
H         15.96809       35.95473       89.13829
H         16.68107       34.81458       90.29716
N         20.38859       35.97266       90.12617
C         21.58500       35.69752       90.90236
C         22.01198       34.24944       90.95532
O         23.04193       33.99832       91.56484
H         20.56706       36.29443       89.17525
H         21.47458       36.11332       91.92631
H         22.42396       36.26265       90.44226
N         21.29870       33.23677       90.38379
C         21.69282       31.83948       90.55655
C         23.00638       31.46013       89.87487
O         23.49314       30.37662       90.17389
C         20.56024       30.86979       90.14751
C         20.18030       30.87928       88.68586
N         19.22721       30.02983       88.24178
O         20.72245       31.63858       87.89866
H         20.41644       33.45320       89.90639
H         21.83664       31.68949       91.65051
H         19.65348       31.11254       90.74282
H         20.87270       29.83625       90.41326
H         18.75957       29.37933       88.89010
H         18.96370       30.01342       87.24676
N         23.63238       32.25207       88.95057
C         24.90840       31.88908       88.34145
C         24.82142       31.57432       86.85891
O         25.83655       31.19642       86.29946
H         23.19654       33.14041       88.66045
H         25.32815       30.97779       88.81970
H         25.63882       32.70927       88.50790
N         23.65144       31.67619       86.15867
C         23.54729       31.29259       84.74859
C         22.27431       31.83065       84.10172
O         21.35666       32.23832       84.79117
C         23.65783       29.75542       84.55045
C         22.68020       28.95203       85.39511
C         22.86355       28.83927       86.78752
C         21.59624       28.27893       84.80429
C         21.98417       28.09024       87.56938
C         20.70997       27.53119       85.59234
C         20.90073       27.43496       86.97537
O         20.04362       26.70918       87.72200
H         22.82724       32.05272       86.63349
H         24.37176       31.80424       84.20536
H         24.68131       29.39809       84.79138
H         23.50096       29.54118       83.47005
H         23.69623       29.31058       87.28083
H         21.43026       28.33631       83.73626
H         22.15060       28.01809       88.63746
H         19.87461       27.02286       85.12794
H         20.14701       26.61928       88.68084
N         22.22898       31.95802       82.73676
C         21.12126       32.61254       82.03734
C         20.57156       31.75044       80.91071
O         21.14216       30.72547       80.57837
C         21.56441       34.01508       81.50951
C         22.74824       33.93232       80.50795
C         21.89289       34.92783       82.70128
C         23.13112       35.28398       79.89826
H         23.04719       31.66253       82.18846
H         20.27557       32.76955       82.74090
H         20.70089       34.47318       80.98253
H         22.46406       33.26239       79.66866
H         23.64901       33.51111       81.00235
H         22.08637       35.96953       82.37806
H         21.02238       34.96092       83.38282
H         22.77521       34.55433       83.26234
H         23.94841       35.13713       79.16100
H         22.25984       35.73621       79.37910
H         23.50729       35.98624       80.66980
N         19.41192       32.13666       80.29979
C         18.76912       31.41599       79.20650
C         18.51696       32.35198       78.02507
O         18.84972       33.52452       78.09640
C         17.44922       30.82293       79.73033
O         16.59728       31.84147       80.18068
H         18.93040       32.96901       80.65930
H         19.40563       30.57459       78.85860
H         17.69625       30.13271       80.57024
H         16.93717       30.23768       78.93728
H         15.91903       31.40590       80.75941
N         17.89986       31.88165       76.90027
C         17.54260       32.72230       75.75706
C         16.58820       33.82480       76.16569
O         16.76964       34.95417       75.73247
C         16.88408       31.88025       74.66076
H         17.65141       30.88283       76.86480
H         18.46055       33.17094       75.31534
H         15.95165       31.40436       75.03219
H         16.63604       32.52327       73.78786
H         17.58551       31.08968       74.32058
N         15.56101       33.57060       77.02451
C         14.65250       34.60053       77.51343
C         15.42034       35.71230       78.20149
O         15.26051       36.86751       77.83313
C         13.64790       33.99220       78.50521
H         15.44593       32.60620       77.37477
H         14.07544       35.02282       76.66100
H         12.94914       34.77320       78.87505
H         13.05393       33.19648       78.00881
H         14.16876       33.54459       79.37985
N         16.26885       35.42483       79.22646
C         16.96767       36.45174       79.99405
C         18.02817       37.19608       79.18379
O         18.56477       38.16912       79.69626
C         17.64178       35.82992       81.22839
C         16.65275       35.08978       82.15169
C         17.40252       34.53722       83.31586
O         17.46088       33.33465       83.51826
O         18.06933       35.38847       84.10485
H         16.37876       34.43575       79.48838
H         16.21008       37.18445       80.35085
H         18.13996       36.63820       81.80945
H         18.42554       35.12567       80.88656
H         16.15162       34.25296       81.62551
H         15.87502       35.79227       82.51812
N         18.40516       36.79007       77.93787
C         19.40679       37.46221       77.13543
H         20.23583       36.75628       76.91714
H         18.95008       37.78194       76.17503
H         19.82796       38.35650       77.63945
H         17.98536       35.95168       77.52920
Ca        19.57577       34.70243       85.58622
O         18.71796       30.55327       84.55407
H         19.38764       30.11289       83.97339
H         18.12387       29.81806       84.84907
O         16.61286       31.57604       86.73938
H         15.86379       32.02430       87.20605
H         16.54497       30.62878       87.01894

Ca 1.0



