%chk=holoCaM-CaMKII.loop4.water1.frame426.chk
%nprocshared=20
%mem=10GB
%nosave
#b3lyp/svp scf=(tight,noincore,xqc) Test 
#IOP(5/87=12) Density=Current Pop=(MK,readradii) iop(6/33=2) iop(6/42=6)

holoCaM-CaMKII.loop4.water1.frame426 

   -3  1 
C         82.50270       68.73425       44.47537
C         82.51608       69.49968       45.76273
O         81.92979       70.57075       45.82367
H         83.54112       68.58270       44.11723
H         82.02042       67.74716       44.63965
H         81.92700       69.28289       43.69891
N         83.14181       68.98460       46.85801
C         83.10407       69.64701       48.15418
C         83.89521       70.95543       48.11648
O         85.11130       70.93464       47.99120
C         83.62366       68.69482       49.24974
C         83.39649       69.18459       50.65118
O         83.79524       68.41485       51.67781
O         82.82081       70.23773       50.87584
H         83.59115       68.05911       46.77427
H         82.02966       69.83933       48.38098
H         84.70631       68.49884       49.09294
H         83.08072       67.72789       49.16593
N         83.22852       72.13757       48.16802
C         83.84109       73.46533       48.09275
C         84.57845       73.81793       49.38432
O         85.72637       74.23357       49.31673
C         82.72930       74.51909       47.75263
C         82.17808       74.22267       46.32452
C         83.25965       75.96433       47.83907
C         80.99352       75.08757       45.89481
H         82.20255       72.08061       48.19166
H         84.56685       73.50505       47.24876
H         81.90662       74.42975       48.49479
H         81.82612       73.17384       46.26527
H         82.99576       74.34450       45.58004
H         83.61773       76.19073       48.86502
H         84.09068       76.12437       47.12115
H         82.45315       76.69676       47.63483
H         80.14431       74.95585       46.59456
H         81.26581       76.15916       45.83504
H         80.66500       74.76978       44.88177
N         83.95495       73.71477       50.58936
C         84.49753       74.22263       51.85658
C         85.15802       73.15130       52.73104
O         85.67606       73.50237       53.78249
C         83.39304       75.00109       52.62255
C         82.21376       74.14377       53.01224
O         81.28034       74.61964       53.63745
O         82.20382       72.84505       52.67198
H         83.02290       73.29394       50.57899
H         85.31038       74.94938       51.63740
H         83.02682       75.83278       51.98321
H         83.82973       75.44124       53.54540
N         85.25555       71.85286       52.33478
C         86.05146       70.85497       53.03486
C         85.55814       70.44965       54.40952
O         86.33249       70.53162       55.35276
H         84.84591       71.57196       51.43547
H         87.10158       71.21692       53.10400
H         86.06784       69.92856       52.42165
N         84.32243       69.89776       54.57675
C         83.90877       69.20241       55.80129
C         83.57738       67.74683       55.48437
O         82.78692       67.13579       56.19113
C         82.77195       69.94716       56.53911
C         81.50781       70.14707       55.75901
O         80.63151       70.86345       56.21536
O         81.36650       69.65280       54.52232
H         83.68755       69.88210       53.76700
H         84.74627       69.17243       56.53192
H         83.16045       70.95648       56.79652
H         82.52347       69.42583       57.48855
N         84.20060       67.11008       54.44839
C         83.98686       65.71796       54.09467
C         82.62077       65.39775       53.51796
O         82.42354       64.24011       53.18089
H         84.91074       67.61680       53.90071
H         84.18130       65.07961       54.98316
H         84.72547       65.44220       53.31014
N         81.63348       66.33203       53.36755
C         80.32402       66.01141       52.80342
C         79.99211       66.90391       51.62507
O         80.67187       67.88751       51.37846
C         79.23822       66.01570       53.91863
C         79.14751       67.25874       54.83485
C         78.49490       68.48508       54.23577
N         77.43833       69.06728       54.85254
O         78.93734       68.98751       53.21785
H         81.79762       67.29865       53.66683
H         80.33500       64.97858       52.39268
H         79.52418       65.17945       54.59399
H         78.23486       65.76832       53.50828
H         80.15550       67.50973       55.21513
H         78.55287       66.96563       55.72688
H         77.05878       68.68815       55.73237
H         77.01316       69.92264       54.46521
N         78.93847       66.57131       50.83011
C         78.45085       67.38388       49.72442
C         76.99022       67.65218       50.01882
O         76.24442       66.69231       50.15347
C         78.63118       66.63247       48.37257
C         78.07302       67.44917       47.19164
C         80.11554       66.32881       48.10639
H         78.43927       65.69150       51.03032
H         79.00912       68.34206       49.65265
H         78.08337       65.66484       48.41536
H         78.60360       68.42106       47.09713
H         78.19945       66.88512       46.24195
H         76.98829       67.64546       47.32009
H         80.54062       65.69768       48.91426
H         80.22882       65.77290       47.15040
H         80.70390       67.26954       48.03923
N         76.50640       68.92319       50.13276
C         75.10028       69.18798       50.42783
C         74.39840       69.67825       49.18224
O         75.03468       69.80429       48.14668
C         74.90853       70.10370       51.66588
C         75.20366       71.57540       51.47925
N         76.45867       72.03688       51.30251
O         74.28105       72.37473       51.53769
H         77.13712       69.71087       49.94584
H         74.59417       68.23583       50.69423
H         75.48783       69.70701       52.52620
H         73.83716       70.03103       51.95175
H         77.26376       71.40241       51.30676
H         76.62521       73.04963       51.20248
N         73.05872       69.92330       49.19784
C         72.31695       70.29439       48.00030
C         72.87202       71.55618       47.36420
O         72.91692       71.62862       46.14382
C         70.82264       70.48458       48.31956
C         70.04652       70.70492       47.04527
C         69.94608       69.67309       46.09527
C         69.44523       71.94433       46.78131
C         69.26194       69.88161       44.89662
C         68.76670       72.15319       45.57734
C         68.67488       71.12203       44.62995
O         68.03064       71.31245       43.46166
H         72.54439       69.80886       50.08319
H         72.41701       69.45624       47.27521
H         70.71856       71.34975       49.01167
H         70.41223       69.58745       48.83270
H         70.40082       68.70750       46.28106
H         69.51862       72.75367       47.49696
H         69.19531       69.07943       44.17227
H         68.31923       73.11846       45.37972
H         67.62172       72.15899       43.23297
N         73.32920       72.58275       48.13246
C         73.92867       73.78764       47.57409
C         75.15234       73.42733       46.74285
O         75.20740       73.78643       45.57514
C         74.31517       74.75794       48.71491
C         74.81817       76.11102       48.18954
C         75.18231       77.02459       49.32429
O         76.07651       76.71898       50.09754
O         74.53168       78.19238       49.48744
H         73.26407       72.49109       49.15700
H         73.17235       74.29748       46.93541
H         75.09113       74.29024       49.36037
H         73.41602       74.94707       49.34257
H         74.01511       76.58268       47.58171
H         75.71369       75.97389       47.54714
N         76.17518       72.71321       47.29634
C         77.40883       72.38274       46.57863
C         77.18168       71.40583       45.42515
O         78.12033       71.17299       44.67585
C         78.45835       71.77469       47.54229
C         78.79242       72.71224       48.71590
C         79.74416       72.07776       49.68488
O         80.75350       72.66780       50.01757
O         79.46732       70.88416       50.23963
H         76.07092       72.42415       48.27877
H         77.82663       73.32911       46.16754
H         79.39730       71.55559       46.98642
H         78.05622       70.81721       47.94041
H         77.88204       72.95373       49.28339
H         79.21000       73.66902       48.33818
N         75.98585       70.77765       45.23215
C         75.72451       69.83884       44.16075
H         74.87550       70.21062       43.54879
H         76.60150       69.69379       43.49724
H         75.44347       68.85670       44.59671
H         75.21244       70.94513       45.87965
Ca        80.73807       71.24722       53.13017
O         78.47984       73.01505       53.39837
H         78.73157       73.70022       52.72913
H         77.62590       73.33726       53.78044

Ca 1.0



