%chk=holoCaM-CaMKII.loop3.water2.frame56.chk
%nprocshared=20
%mem=10GB
%nosave
#b3lyp/svp scf=(tight,noincore,xqc) Test 
#IOP(5/87=12) Density=Current Pop=(MK,readradii) iop(6/33=2) iop(6/42=6)

holoCaM-CaMKII.loop3.water2.frame56 

   0  1 
C         10.69210       49.42179       83.22902
C         11.80962       48.42574       83.32596
O         11.57838       47.31540       83.76738
H          9.74092       48.99304       83.60828
H         10.94758       50.31699       83.83572
H         10.55560       49.72910       82.17065
N         13.05046       48.77708       82.89516
C         14.26802       47.95763       82.94464
C         14.79585       47.86325       84.38228
O         15.83289       48.44234       84.67220
C         15.26832       48.62336       81.95184
C         16.66616       48.08365       81.79398
O         17.59792       48.86728       81.87466
O         16.93673       46.81354       81.44013
H         13.12042       49.71642       82.47068
H         14.07481       46.93759       82.54969
H         15.36974       49.69923       82.21850
H         14.80532       48.57530       80.94512
N         14.12708       47.15482       85.34723
C         14.58710       47.05065       86.73147
C         15.74988       46.07478       86.89757
O         16.27551       46.00340       88.00024
C         13.43836       46.64207       87.68272
C         12.29827       47.67572       87.70457
C         11.26748       47.32489       88.79052
C         10.13205       48.35628       88.90923
N          9.26314       48.36950       87.73137
H         13.26048       46.66781       85.10720
H         14.92686       48.05786       87.06259
H         13.85251       46.57824       88.71373
H         13.04025       45.64106       87.40465
H         11.81838       47.71537       86.70578
H         12.72067       48.67791       87.93852
H         11.79606       47.30153       89.76928
H         10.83666       46.31701       88.60608
H         10.55524       49.37085       89.08305
H          9.51655       48.08963       89.79714
H          8.85300       47.41917       87.58026
H          8.48372       49.04711       87.89494
H          9.78749       48.67243       86.88094
N         16.23381       45.32576       85.86125
C         17.44806       44.51296       85.96417
C         18.61391       45.21801       85.26884
O         19.74182       44.77066       85.42266
C         17.25149       43.06359       85.44781
C         16.88434       43.03244       83.99343
O         17.69993       42.66272       83.16422
O         15.69323       43.51363       83.59412
H         15.79306       45.42391       84.94018
H         17.74999       44.43339       87.03141
H         16.47569       42.52600       86.03241
H         18.21541       42.52487       85.59047
N         18.42998       46.37358       84.56246
C         19.51292       47.21329       84.09211
C         20.31058       46.67447       82.93066
O         21.26480       47.34704       82.56419
H         17.48931       46.75246       84.43483
H         20.18605       47.42542       84.94972
H         19.09245       48.18736       83.76712
N         20.01483       45.50763       82.28241
C         20.86601       45.01482       81.19838
C         20.86601       45.92326       79.96684
O         21.68437       45.70264       79.08575
C         20.51397       43.56184       80.81003
C         19.24418       43.42837       80.00168
N         19.27093       42.83992       78.78126
O         18.18724       43.84358       80.44852
H         19.21593       44.93969       82.59819
H         21.89828       44.98318       81.61403
H         20.43437       42.95160       81.73561
H         21.35693       43.14784       80.21572
H         20.15026       42.47183       78.38875
H         18.40887       42.73909       78.22631
N         19.96352       46.93951       79.82601
C         19.92812       47.84783       78.69351
C         18.65375       47.72402       77.88531
O         18.49728       48.51773       76.96616
H         19.25195       47.09391       80.54836
H         20.78139       47.67830       78.00145
H         20.01349       48.88442       79.08442
N         17.73308       46.73275       78.10171
C         16.56398       46.54254       77.24764
C         15.27267       46.48299       78.04572
O         15.30634       46.39090       79.26467
C         16.70117       45.22898       76.44201
C         17.89209       45.21774       75.51059
C         17.68792       45.25330       74.12118
C         19.20893       45.15623       76.00419
C         18.77523       45.24806       73.24450
C         20.29512       45.14901       75.12552
C         20.08103       45.19877       73.74111
O         21.11860       45.19701       72.88064
H         17.89680       46.03676       78.84399
H         16.47010       47.38616       76.52850
H         15.77603       45.10291       75.83950
H         16.76764       44.35428       77.12257
H         16.68553       45.29451       73.71357
H         19.40412       45.10566       77.06617
H         18.60031       45.28388       72.17696
H         21.30161       45.10342       75.52252
H         22.03735       45.16635       73.18293
N         14.07778       46.51993       77.39014
C         12.77706       46.35504       78.02993
C         12.04382       45.23400       77.31011
O         11.89273       45.31501       76.09677
C         11.93687       47.66515       77.96548
C         12.70733       48.84782       78.60439
C         10.58562       47.45056       78.68984
C         11.99297       50.19379       78.45627
H         14.08870       46.67054       76.36817
H         12.90021       46.10656       79.10621
H         11.74490       47.91018       76.89727
H         13.69204       48.95626       78.10244
H         12.88155       48.64575       79.68205
H          9.93116       48.33980       78.61692
H         10.01616       46.61481       78.23751
H         10.75394       47.21828       79.76495
H         11.02694       50.21036       78.99876
H         12.62729       50.99711       78.88569
H         11.81707       50.41691       77.38231
N         11.50619       44.19047       77.99678
C         10.73354       43.12559       77.36203
C          9.26560       43.25365       77.72949
O          8.90664       44.18397       78.43398
C         11.30898       41.76051       77.77610
O         11.21449       41.59421       79.16449
H         11.59588       44.17907       79.02357
H         10.79054       43.19854       76.25399
H         12.37346       41.71627       77.45809
H         10.75782       40.93946       77.27004
H         11.75128       40.79010       79.38744
N          8.34852       42.36457       77.25666
C          6.93002       42.40247       77.60597
C          6.72979       42.17953       79.09515
O          6.02108       42.95650       79.71940
C          6.16145       41.33587       76.82256
H          8.67554       41.62199       76.61943
H          6.49729       43.38616       77.31172
H          6.53691       40.31808       77.05789
H          5.07936       41.39087       77.07087
H          6.27514       41.52018       75.73260
N          7.35817       41.14824       79.73690
C          7.22891       40.88119       81.17350
C          7.73133       42.01604       82.07045
O          7.59267       41.90361       83.28065
C          7.99668       39.60129       81.52993
H          7.95091       40.52118       79.17083
H          6.15214       40.71436       81.39520
H          7.86338       39.34944       82.60378
H          7.62007       38.74945       80.92542
H          9.08195       39.73435       81.32565
N          8.30169       43.13901       81.55714
C          8.77630       44.26797       82.33997
C          7.84387       45.45589       82.15009
O          7.55158       46.12939       83.12853
C         10.21664       44.60847       81.92076
C         11.16703       43.41740       82.14813
C         12.58641       43.70082       81.74318
O         13.50737       42.72483       81.84867
O         12.91656       44.79365       81.31217
H          8.42547       43.21496       80.54824
H          8.78920       44.03016       83.42745
H         10.56912       45.47143       82.51621
H         10.23132       44.89697       80.84762
H         10.81632       42.54967       81.55318
H         11.15876       43.13414       83.22243
N          7.27304       45.73299       80.94259
C          6.31370       46.79961       80.76231
H          5.44845       46.65001       81.44385
H          6.79025       47.77973       80.96646
H          5.93481       46.79233       79.71687
H          7.48029       45.15142       80.12470
Ca        15.80952       44.93460       81.88002
O         14.82668       43.02297       78.64271
H         14.48037       42.81148       77.74019
H         15.77475       42.74143       78.61019
O         16.72374       41.35879       80.70756
H         16.03575       40.76760       81.10258
H         17.05645       40.86662       79.91553

Ca 1.0



