%chk=holoCaM.loop3.water3.frame467.chk
%nprocshared=20
%mem=10GB
%nosave
#b3lyp/svp scf=(tight,noincore,xqc) Test 
#IOP(5/87=12) Density=Current Pop=(MK,readradii) iop(6/33=2) iop(6/42=6)

holoCaM.loop3.water3.frame467 

   0  1 
C         20.02097       50.27668       86.87507
C         19.48949       49.07968       87.59589
O         20.20226       48.09381       87.72821
H         21.06219       50.09641       86.53305
H         19.38101       50.49046       85.99449
H         20.01361       51.15108       87.55925
N         18.23158       49.10377       88.11467
C         17.68610       47.98241       88.85721
C         17.53740       46.76882       87.95368
O         16.85293       46.85469       86.94356
C         16.34034       48.35616       89.51937
C         15.92286       47.30059       90.50162
O         16.69342       46.22002       90.66139
O         14.93072       47.44222       91.18222
H         17.66868       49.96262       88.01198
H         18.39974       47.75867       89.67973
H         15.55053       48.51777       88.75467
H         16.47416       49.29599       90.09767
N         18.16792       45.60108       88.26695
C         18.13886       44.41967       87.41497
C         16.71539       43.93131       87.17615
O         16.33509       43.80556       86.02060
C         19.03063       43.30135       88.01090
C         19.36470       42.22463       86.96423
C         20.34120       41.17290       87.51222
C         20.82343       40.24404       86.38576
N         21.76525       39.24351       86.88704
H         18.72712       45.56731       89.13262
H         18.59658       44.71203       86.44266
H         18.56178       42.85877       88.91723
H         20.00141       43.75502       88.31040
H         19.85415       42.73504       86.10508
H         18.44048       41.72554       86.60108
H         19.84384       40.58477       88.31432
H         21.23146       41.68158       87.94367
H         21.33154       40.85535       85.60549
H         19.95526       39.73127       85.91633
H         21.29170       38.62077       87.58055
H         22.10431       38.66289       86.08571
H         22.58790       39.71102       87.33320
N         15.86869       43.66045       88.21668
C         14.50518       43.15140       88.03326
C         13.41486       44.14818       88.44610
O         12.24722       43.79539       88.34825
C         14.34988       41.78661       88.74072
C         14.42149       41.81674       90.24433
O         14.56979       42.86149       90.85628
O         14.30004       40.66299       90.92701
H         16.20850       43.82111       89.17620
H         14.32255       42.94794       86.95485
H         15.14167       41.10354       88.36230
H         13.36668       41.34849       88.46253
N         13.70292       45.43059       88.81839
C         12.67705       46.45723       88.97912
C         11.93168       46.48595       90.30538
O         11.01881       47.29434       90.40614
H         14.68147       45.73986       88.79799
H         11.94617       46.35942       88.14543
H         13.15115       47.45470       88.86313
N         12.23586       45.68124       91.36639
C         11.44660       45.69618       92.60849
C         11.50782       47.00975       93.40509
O         10.77116       47.13280       94.37306
C         11.84473       44.52115       93.53090
C         13.20031       44.69463       94.17780
N         13.32176       44.70768       95.52659
O         14.19531       44.82068       93.48344
H         12.99982       44.99957       91.26020
H         10.38924       45.52364       92.30851
H         11.83180       43.57701       92.94539
H         11.07683       44.42544       94.32895
H         12.49865       44.59853       96.13639
H         14.24492       44.81976       95.96779
N         12.38788       48.00133       93.09519
C         12.53157       49.24583       93.83285
C         13.89308       49.36662       94.49295
O         14.20646       50.46007       94.94712
H         13.01244       47.87989       92.30099
H         11.75632       49.36996       94.61883
H         12.40782       50.07669       93.10462
N         14.72901       48.29394       94.65088
C         16.02969       48.37975       95.31140
C         17.13429       47.81429       94.44347
O         16.86992       46.96603       93.60235
C         16.03049       47.63298       96.66106
C         15.15720       48.32344       97.68038
C         13.75409       48.28737       97.59493
C         15.76052       49.03383       98.73181
C         12.97357       48.96387       98.53924
C         14.98066       49.71433       99.66682
C         13.58330       49.68477       99.57263
O         12.82073       50.34622      100.46598
H         14.41919       47.36393       94.33424
H         16.29036       49.44120       95.52376
H         17.07740       47.64116       97.03736
H         15.74132       46.56639       96.55000
H         13.26212       47.73682       96.80309
H         16.83918       49.07904       98.81815
H         11.89383       48.93301       98.46460
H         15.46632       50.26871      100.45976
H         13.20847       50.86680      101.18439
N         18.41980       48.23101       94.62754
C         19.56330       47.72522       93.87546
C         20.57374       47.15126       94.86309
O         20.92206       47.83746       95.81707
C         20.20679       48.85172       93.00988
C         19.12251       49.61401       92.20042
C         21.26532       48.22710       92.07238
C         19.67199       50.72798       91.30482
H         18.59970       48.96534       95.33234
H         19.23436       46.92983       93.16732
H         20.70316       49.58993       93.67817
H         18.41736       50.09485       92.91183
H         18.54298       48.90577       91.58025
H         20.78501       47.51441       91.36538
H         21.80042       49.00024       91.48686
H         22.03742       47.68145       92.65093
H         20.30551       50.31885       90.49179
H         18.82729       51.26486       90.82359
H         20.25943       51.45406       91.90573
N         21.11666       45.91623       94.67796
C         22.06419       45.29006       95.60070
C         23.47475       45.30543       95.03589
O         23.68052       45.85820       93.96925
C         21.60611       43.85003       95.88155
O         20.33533       43.85273       96.47361
H         20.86877       45.40235       93.82093
H         22.10534       45.84573       96.56364
H         22.29810       43.33217       96.57485
H         21.61291       43.25901       94.93321
H         19.68831       43.59259       95.77069
N         24.51174       44.74733       95.72338
C         25.89831       44.74659       95.25674
C         26.05605       43.99905       93.94420
O         26.57132       44.56946       92.99414
C         26.80956       44.10312       96.30930
H         24.30920       44.31637       96.63910
H         26.23923       45.79831       95.12404
H         26.51582       43.04851       96.50030
H         27.86590       44.12241       95.96492
H         26.74229       44.66682       97.26364
N         25.62422       42.71141       93.82754
C         25.74227       41.91776       92.60456
C         25.11558       42.62993       91.42550
O         25.72453       42.70410       90.36718
C         25.04448       40.56356       92.79917
H         25.16113       42.28537       94.64515
H         26.81353       41.71922       92.38173
H         23.96423       40.70401       93.02453
H         25.13661       39.94565       91.88012
H         25.51205       40.01019       93.64080
N         23.89437       43.20194       91.56512
C         23.17750       43.89221       90.49886
C         24.01630       45.04078       89.95564
O         24.27135       45.07584       88.76002
C         21.80301       44.36447       91.02817
C         20.95650       43.14747       91.48214
C         19.64388       43.53108       92.07695
O         19.36784       43.22412       93.22467
O         18.74619       44.18329       91.33891
H         23.47157       43.15584       92.50320
H         22.97917       43.18098       89.66545
H         21.25896       44.91256       90.22731
H         21.96253       45.06396       91.87403
H         21.48271       42.55064       92.25017
H         20.76883       42.48581       90.61102
N         24.53063       45.98329       90.78889
C         25.39801       47.04875       90.33775
H         26.30371       46.62154       89.85607
H         24.86154       47.70327       89.62103
H         25.72453       47.66012       91.20762
H         24.33405       45.92201       91.78827
Ca        16.68529       44.55455       92.10971
O         17.47327       41.18357       92.12956
H         18.42750       40.93200       92.04967
H         17.18050       41.33573       91.19655
O         17.09428       44.06283       95.36719
H         17.38698       43.12057       95.28342
H         16.57166       44.08117       96.20714
O         15.23344       42.16415       94.01128
H         15.21351       41.49472       94.73941
H         14.60132       41.81569       93.33576

Ca 1.0



