%chk=holoCaM-CaMKII.loop1.water2.frame333.chk
%nprocshared=20
%mem=10GB
%nosave
#b3lyp/svp scf=(tight,noincore,xqc) Test 
#IOP(5/87=12) Density=Current Pop=(MK,readradii) iop(6/33=2) iop(6/42=6)

holoCaM-CaMKII.loop1.water2.frame333 

   0  1 
C         30.43315       73.09980       57.49059
C         30.63580       74.32208       56.64028
O         29.95676       75.30299       56.87235
H         29.39185       72.73636       57.37953
H         31.12120       72.27790       57.20037
H         30.61993       73.35256       58.55538
N         31.57558       74.32398       55.65393
C         31.91490       75.43831       54.75558
C         30.74865       75.75860       53.79714
O         30.83040       75.39709       52.63102
C         33.19379       74.99638       53.98693
C         33.91513       75.97568       53.09702
O         33.66576       77.29924       53.05001
O         34.82884       75.54231       52.41543
H         32.12368       73.45401       55.55960
H         32.19388       76.31946       55.34998
H         32.92098       74.11538       53.36593
H         33.95576       74.65723       54.72441
N         29.60914       76.39380       54.22023
C         28.42376       76.54042       53.37092
C         28.60335       77.50465       52.20358
O         27.73035       77.50987       51.34573
C         27.19056       77.02536       54.17534
C         26.69670       76.10202       55.30463
C         26.25544       74.71581       54.80134
C         25.45001       73.92340       55.84825
N         26.20799       73.65490       57.06990
H         29.55167       76.73373       55.18505
H         28.19130       75.53918       52.94738
H         26.33322       77.15150       53.47635
H         27.41617       78.02407       54.61037
H         25.81255       76.60746       55.75198
H         27.46815       75.99900       56.09415
H         27.14256       74.12898       54.47976
H         25.58539       74.84723       53.92371
H         25.14260       72.95571       55.39249
H         24.52370       74.48474       56.10433
H         25.61625       73.07890       57.71184
H         27.07762       73.12316       56.84272
H         26.44520       74.54587       57.56118
N         29.65619       78.36725       52.10420
C         29.81238       79.30073       50.98636
C         31.02636       78.96954       50.12944
O         31.20942       79.61640       49.10757
C         29.80889       80.75883       51.49010
C         30.90159       81.06662       52.47434
O         32.07479       80.96661       52.15394
O         30.58289       81.48165       53.71453
H         30.36792       78.37417       52.84502
H         28.94788       79.21508       50.29286
H         28.82838       80.95405       51.97820
H         29.89567       81.45305       50.62613
N         31.85936       77.93649       50.43604
C         32.91709       77.47468       49.55943
C         34.00174       78.49509       49.32437
O         34.29496       78.80057       48.17794
H         31.71098       77.39310       51.29488
H         32.47546       77.14723       48.59415
H         33.39480       76.58485       50.02701
N         34.69822       78.99356       50.37785
C         35.91096       79.79370       50.26003
C         37.11426       79.00495       50.78967
O         38.20331       79.55499       50.86824
C         35.71682       81.16034       50.95136
C         35.46079       81.13419       52.43539
O         35.26851       82.18960       53.01638
O         35.44213       79.98406       53.13599
H         34.39946       78.71958       51.31926
H         36.13086       80.01976       49.19384
H         34.85504       81.66711       50.46411
H         36.62078       81.78223       50.77252
N         36.99235       77.68202       51.11127
C         38.06409       76.82864       51.58681
C         38.53486       77.20316       52.96693
O         39.73249       77.19075       53.19526
H         36.09074       77.20700       50.98212
H         38.90110       76.78872       50.85656
H         37.65400       75.79802       51.67531
N         37.62534       77.44066       53.95478
C         37.94143       77.66549       55.37315
C         36.66279       77.60857       56.22266
O         35.56441       77.65882       55.68368
C         38.67264       79.01520       55.67308
C         40.11671       79.16426       55.17622
O         37.90587       80.10375       55.23621
H         36.63761       77.37342       53.67090
H         38.56807       76.81078       55.71061
H         38.76437       79.08795       56.77833
H         37.91566       80.09331       54.24288
H         40.55259       80.09693       55.59307
H         40.73484       78.30761       55.52028
H         40.17176       79.27411       54.07724
N         36.74345       77.43967       57.57674
C         35.56847       77.28389       58.43339
C         35.60446       78.31431       59.55234
O         36.53030       78.29507       60.35219
C         35.50387       75.82774       58.99022
C         35.43094       74.81599       57.81257
C         34.29208       75.65583       59.93017
C         35.44935       73.34829       58.24388
H         37.67499       77.34910       58.01109
H         34.64157       77.43793       57.84597
H         36.42995       75.62927       59.57494
H         36.31218       74.95951       57.15221
H         34.51375       75.00200       57.21127
H         34.35579       76.35731       60.78349
H         33.34225       75.83567       59.38329
H         34.26621       74.64325       60.37787
H         34.55179       73.08446       58.83785
H         35.44821       72.70212       57.34068
H         36.36478       73.13222       58.83419
N         34.60143       79.23194       59.67990
C         34.52839       80.18787       60.78666
C         33.87527       79.55085       62.00228
O         33.41802       78.42466       61.92011
C         33.73000       81.45911       60.38031
C         34.41318       82.23093       59.24809
O         32.39430       81.14781       60.05769
H         33.83839       79.21459       58.98889
H         35.55746       80.50745       61.06456
H         33.69980       82.16180       61.23938
H         32.34622       80.87122       59.10612
H         34.48095       81.59510       58.34616
H         33.82652       83.14286       59.00691
H         35.43541       82.53746       59.55445
N         33.78135       80.24008       63.17306
C         33.05370       79.75018       64.34457
C         31.57065       79.61355       64.02843
O         30.98402       78.59269       64.35818
C         33.24182       80.69405       65.55767
C         34.70113       80.71102       66.03182
O         32.82420       81.99640       65.23646
H         34.22406       81.16955       63.22054
H         33.44998       78.75592       64.65424
H         32.61895       80.29243       66.39245
H         32.66208       82.46689       66.09537
H         35.02355       79.68434       66.30945
H         35.37965       81.09782       65.24392
H         34.79807       81.35844       66.92845
N         30.91837       80.60138       63.34870
C         29.50207       80.56724       62.97928
C         29.15570       79.26554       62.28490
O         28.25387       78.56634       62.72502
C         29.20067       81.77647       62.05847
C         27.73178       81.86419       61.61108
C         27.45973       83.04987       60.66609
C         27.71189       84.42027       61.31811
N         27.34130       85.50768       60.41308
H         31.47790       81.41185       63.04052
H         28.88206       80.65191       63.89896
H         29.84367       81.72304       61.15180
H         29.46992       82.69387       62.62040
H         27.07338       81.93956       62.50260
H         27.46512       80.93768       61.05743
H         26.39203       82.99616       60.36087
H         28.08456       82.95193       59.75056
H         28.78570       84.52992       61.57978
H         27.10946       84.50150       62.24954
H         27.90752       85.45639       59.53517
H         26.32293       85.45132       60.18158
H         27.52923       86.42228       60.88411
N         29.86747       78.87351       61.20188
C         29.63840       77.63113       60.47903
C         29.77111       76.42521       61.39071
O         28.83993       75.63436       61.45809
C         30.63672       77.54646       59.32012
C         30.28325       78.57570       58.22825
C         31.25850       78.54613       57.10090
O         32.26804       77.86542       57.16800
O         31.00309       79.22570       55.97244
H         30.63326       79.49028       60.89459
H         28.60985       77.61941       60.05138
H         30.59404       76.53587       58.86925
H         31.67063       77.70396       59.70254
H         30.23926       79.61212       58.62156
H         29.28269       78.31079       57.82228
N         30.88869       76.22406       62.13495
C         31.03552       75.08985       63.01896
H         32.00394       75.15537       63.55907
H         30.21326       75.08194       63.76614
H         31.01521       74.14796       62.43142
H         31.65052       76.90614       62.09007
Ca        32.40948       78.60865       54.35692
O         35.24937       81.67119       55.97334
H         36.04947       81.66802       55.39675
H         35.17073       82.61490       56.26076
O         32.37107       82.20536       56.37608
H         32.18743       82.94417       57.00832
H         31.47695       81.84894       56.15048

Ca 1.0



