%chk=holoCaM-CaMKII.loop1.water2.frame448.chk
%nprocshared=20
%mem=10GB
%nosave
#b3lyp/svp scf=(tight,noincore,xqc) Test 
#IOP(5/87=12) Density=Current Pop=(MK,readradii) iop(6/33=2) iop(6/42=6)

holoCaM-CaMKII.loop1.water2.frame448 

   0  1 
C         73.69297       52.15341       25.93818
C         74.89226       51.29796       25.67364
O         75.86327       51.38560       26.41006
H         72.81731       51.50016       26.14267
H         73.86328       52.80243       26.82347
H         73.48036       52.78736       25.05386
N         74.87755       50.40648       24.64637
C         75.96518       49.46704       24.41707
C         77.25334       50.20266       24.00987
O         77.21001       50.99660       23.08119
C         75.54800       48.40928       23.35962
C         76.33304       47.13283       23.51216
O         76.16747       46.20918       22.73457
O         77.11624       46.97458       24.59581
H         74.02736       50.34726       24.06350
H         76.09826       48.92949       25.38214
H         75.63178       48.83591       22.33635
H         74.48989       48.10519       23.52089
N         78.43060       49.97909       24.66792
C         79.68717       50.70686       24.44743
C         80.79770       49.87729       23.80320
O         81.80677       50.47394       23.45213
C         80.21211       51.21912       25.81413
C         79.39915       52.37731       26.40281
C         79.71023       53.68625       25.65459
C         78.99125       54.91006       26.23234
N         77.54327       54.83563       26.04056
H         78.42914       49.26112       25.38830
H         79.51899       51.53909       23.73411
H         81.26941       51.55739       25.74694
H         80.20140       50.35984       26.52297
H         79.71250       52.51670       27.46102
H         78.32173       52.12274       26.39323
H         79.46140       53.60282       24.57769
H         80.80416       53.87402       25.74048
H         79.37511       55.80827       25.69924
H         79.23167       55.02508       27.31278
H         77.32322       54.69912       25.02687
H         77.13513       54.05600       26.60248
H         77.11485       55.73424       26.35871
N         80.70612       48.53520       23.60043
C         81.72576       47.75372       22.87707
C         81.13507       47.09221       21.62910
O         81.88188       46.44783       20.90580
C         82.47576       46.74125       23.80057
C         81.59707       45.75186       24.50863
O         80.27988       45.88378       24.35875
O         82.06248       44.93168       25.28323
H         79.86101       48.06802       23.94633
H         82.52278       48.42838       22.49620
H         83.02005       47.31986       24.57909
H         83.23048       46.19050       23.19877
N         79.82629       47.25980       21.27215
C         79.25617       46.76680       20.03061
C         79.22162       45.26327       19.94008
O         79.72156       44.71497       18.96837
H         79.19382       47.81853       21.86043
H         79.80829       47.19992       19.16800
H         78.20304       47.11869       19.96564
N         78.59969       44.53594       20.90654
C         78.38731       43.09332       20.83049
C         76.89380       42.75451       20.92722
O         76.56195       41.58270       21.03932
C         79.25653       42.37446       21.88812
C         78.92232       42.65978       23.31772
O         77.97273       43.35830       23.60762
O         79.67132       42.11824       24.29572
H         78.23902       45.03774       21.73110
H         78.74588       42.69275       19.85709
H         80.31423       42.67071       21.71647
H         79.18054       41.27593       21.74143
N         75.93422       43.72614       20.81965
C         74.50350       43.45965       20.82215
C         73.89960       43.19882       22.18941
O         72.69563       42.98066       22.22876
H         76.21189       44.69581       20.61728
H         74.28191       42.62207       20.12503
H         73.98102       44.35957       20.42977
N         74.62736       43.21671       23.34591
C         74.03944       42.98245       24.66629
C         74.30448       44.13977       25.62592
O         75.07727       45.03475       25.31319
C         74.56336       41.65326       25.26210
C         74.16200       40.43927       24.40996
O         75.95606       41.69571       25.44696
H         75.63482       43.39260       23.29357
H         72.93378       42.89811       24.57642
H         74.09885       41.49899       26.25942
H         76.39168       41.54776       24.56811
H         73.05638       40.38005       24.32610
H         74.59560       40.50646       23.38933
H         74.53185       39.50840       24.88956
N         73.63434       44.19359       26.81232
C         73.75306       45.25802       27.80927
C         74.06823       44.64120       29.16960
O         73.41689       43.68037       29.56051
C         72.43834       46.09771       27.82937
C         72.32890       46.88738       26.49216
C         72.40696       47.07192       29.02799
C         71.02053       47.65697       26.31280
H         72.94132       43.45209       27.00373
H         74.56418       45.97139       27.55139
H         71.57480       45.40429       27.93437
H         72.40234       46.18513       25.63617
H         73.17633       47.60705       26.41596
H         71.45517       47.63661       29.06632
H         72.46402       46.51935       29.98816
H         73.25023       47.79033       28.97500
H         71.03499       48.17146       25.32814
H         70.16101       46.95540       26.33513
H         70.88775       48.43666       27.08855
N         75.01208       45.20699       29.97657
C         75.37048       44.72411       31.30752
C         74.92251       45.72491       32.36458
O         74.36933       46.75859       32.02020
C         76.91132       44.51353       31.40779
C         77.45816       43.53724       30.36423
O         77.59622       45.73824       31.33334
H         75.46975       46.06631       29.65371
H         74.86338       43.75721       31.51817
H         77.15272       44.07345       32.39727
H         77.63923       46.01599       30.38442
H         77.27559       43.93533       29.34613
H         78.55540       43.42287       30.50415
H         76.97630       42.54429       30.46668
N         75.15665       45.49214       33.68410
C         74.87456       46.46535       34.74212
C         75.65915       47.74891       34.49148
O         75.08149       48.82539       34.51626
C         75.22884       45.88374       36.13515
C         74.30990       44.70547       36.49247
O         76.57356       45.47482       36.16613
H         75.60121       44.59777       33.94100
H         73.78868       46.71332       34.75544
H         75.06660       46.68706       36.89066
H         76.78435       45.23254       37.10526
H         74.42991       43.86446       35.77897
H         74.55007       44.33487       37.51115
H         73.24883       45.03383       36.48489
N         76.97872       47.67485       34.16632
C         77.84004       48.80800       33.82621
C         77.20048       49.71049       32.78415
O         77.09735       50.90804       33.01277
C         79.17995       48.22119       33.30606
C         80.20225       49.21910       32.74181
C         81.53782       48.52828       32.38057
C         81.41669       47.41204       31.32005
N         82.72162       46.80953       31.04371
H         77.38452       46.72887       34.09824
H         78.03812       49.42014       34.73348
H         78.93871       47.51111       32.49334
H         79.64793       47.65451       34.14063
H         80.41256       49.99685       33.50610
H         79.78607       49.71593       31.83764
H         81.97547       48.09589       33.30642
H         82.23669       49.30393       31.99894
H         80.99504       47.83050       30.37944
H         80.74266       46.60551       31.67769
H         83.11393       46.38869       31.91786
H         82.60678       46.05108       30.33242
H         83.38286       47.52807       30.67059
N         76.78308       49.20004       31.60072
C         76.29048       50.01454       30.49383
C         74.98238       50.69252       30.87300
O         74.93818       51.91523       30.88340
C         76.21381       49.14019       29.21799
C         77.64319       48.63649       28.87392
C         77.72179       47.60349       27.79391
O         78.60427       47.67735       26.96169
O         76.98003       46.48715       27.85092
H         76.86694       48.18240       31.47690
H         77.03616       50.81218       30.27297
H         75.80355       49.71596       28.36343
H         75.53416       48.28877       29.41389
H         78.10538       48.14945       29.74794
H         78.29453       49.50238       28.62113
N         73.88936       49.97241       31.24300
C         72.66607       50.60162       31.69783
H         71.91724       49.82733       31.97116
H         72.87153       51.21819       32.60046
H         72.24180       51.24604       30.89989
H         73.93067       48.94837       31.22821
Ca        78.39033       45.27664       25.30649
O         79.78609       44.99061       28.10945
H         80.28631       44.62480       28.88076
H         80.40557       44.89279       27.34437
O         77.81198       42.63958       27.28310
H         78.30325       42.01234       27.87006
H         78.39522       42.74891       26.49302

Ca 1.0



