%chk=holoCaM-CaMKII.loop2.water2.frame1.chk
%nprocshared=20
%mem=10GB
%nosave
#b3lyp/svp scf=(tight,noincore,xqc) Test 
#IOP(5/87=12) Density=Current Pop=(MK,readradii) iop(6/33=2) iop(6/42=6)

holoCaM-CaMKII.loop2.water2.frame1 

   -2  1 
C         59.01447       43.42029       34.88080
C         59.57904       43.78590       33.53408
O         59.25589       44.84283       33.01456
H         57.91003       43.34438       34.82801
H         59.41575       42.44668       35.23908
H         59.29706       44.19516       35.62483
N         60.46400       42.95453       32.92551
C         61.15777       43.25725       31.67909
C         60.23193       43.37496       30.47043
O         59.45703       42.46404       30.21611
C         62.20195       42.15894       31.42179
C         62.99244       42.46407       30.19816
O         63.03428       41.66344       29.27831
O         63.62372       43.64738       30.10174
H         60.70814       42.07876       33.41500
H         61.71578       44.21122       31.81473
H         61.70998       41.16668       31.32063
H         62.90357       42.11789       32.28140
N         60.34275       44.45185       29.63284
C         59.57263       44.63184       28.40336
C         60.44894       44.73903       27.14269
O         59.87829       44.89584       26.07148
C         58.73913       45.91225       28.54085
H         61.02184       45.18409       29.87469
H         58.87553       43.77906       28.25623
H         58.07660       45.84445       29.42926
H         59.40349       46.79645       28.66016
H         58.10288       46.06755       27.64313
N         61.81795       44.70098       27.17648
C         62.65165       45.00406       25.99964
C         64.01227       44.29324       25.94803
O         64.70541       44.46596       24.95372
C         62.87728       46.52686       25.89851
C         63.53030       47.12695       27.11280
O         63.78252       48.32082       27.12462
O         63.78152       46.39417       28.21460
H         62.26211       44.62705       28.09469
H         62.11152       44.68622       25.08006
H         61.90060       47.03673       25.75894
H         63.50250       46.74858       25.00528
N         64.46777       43.48159       26.94076
C         65.72601       42.75588       26.87250
C         66.98762       43.60417       26.91144
O         68.04392       43.01515       26.72713
H         63.87676       43.30229       27.74695
H         65.72433       42.15669       25.93541
H         65.78529       42.04185       27.72233
N         66.99912       44.95754       27.12603
C         68.24165       45.72894       27.01501
C         69.32114       45.37708       28.05152
O         70.43527       45.85664       27.89090
C         67.99335       47.25936       26.99419
C         67.57980       47.89050       28.29803
N         67.58763       49.23803       28.41253
O         67.28164       47.20564       29.26006
H         66.11250       45.45579       27.28424
H         68.65889       45.48624       26.01252
H         67.25333       47.52640       26.20947
H         68.96022       47.73273       26.71853
H         67.83810       49.83488       27.61257
H         67.39298       49.69206       29.31259
N         69.07737       44.58374       29.13713
C         70.09174       44.21411       30.12040
C         69.84123       44.79604       31.50519
O         70.62160       44.50037       32.39805
H         68.13301       44.21820       29.28427
H         71.10090       44.55938       29.80625
H         70.12714       43.10577       30.18468
N         68.82940       45.68107       31.74658
C         68.67479       46.42954       32.99568
C         67.19951       46.70957       33.29896
O         66.33332       46.35202       32.51431
C         69.43175       47.78715       32.87211
C         70.95057       47.61632       32.80404
O         69.00535       48.49072       31.73219
H         68.23965       45.95994       30.96161
H         69.08654       45.85206       33.85277
H         69.26770       48.41009       33.77840
H         68.12953       48.90225       31.95138
H         71.43444       48.61592       32.77003
H         71.31570       47.08575       33.70992
H         71.25970       47.05834       31.89802
N         66.86167       47.42157       34.41686
C         65.51674       47.91847       34.68845
C         65.40806       49.33784       34.15105
O         66.30435       50.14230       34.35964
C         65.18825       47.88671       36.21509
C         65.21836       46.43299       36.74858
C         63.81281       48.53872       36.48716
C         64.92566       46.32399       38.24983
H         67.61441       47.74882       35.03876
H         64.75544       47.28833       34.17597
H         65.95426       48.48519       36.75712
H         66.22942       46.00864       36.57276
H         64.47785       45.81105       36.19921
H         63.80755       49.59330       36.15462
H         63.00327       47.98525       35.96655
H         63.58594       48.58948       37.56834
H         65.02543       45.26744       38.57253
H         65.63761       46.94739       38.83087
H         63.88717       46.63432       38.48699
N         64.26561       49.71843       33.51659
C         63.98984       51.06244       33.01858
C         62.87846       51.69878       33.81653
O         62.38208       51.08304       34.73992
C         63.64128       50.94934       31.52781
C         64.92471       50.78081       30.78218
O         65.70968       51.71398       30.74027
O         65.27982       49.63181       30.19828
H         63.51245       49.02347       33.41909
H         64.85991       51.74052       33.16310
H         63.15483       51.86480       31.13035
H         62.93585       50.10122       31.37014
N         62.49057       52.98348       33.56829
C         61.50401       53.65731       34.40238
C         60.14410       52.97033       34.33909
O         59.63277       52.66072       35.40896
C         61.40294       55.17071       34.09124
C         60.48816       55.85987       35.07951
C         59.29776       56.46780       34.64560
C         60.81270       55.88971       36.44915
C         58.44519       57.08447       35.56700
C         59.95814       56.50739       37.36513
C         58.77422       57.10276       36.92515
H         62.95308       53.50991       32.81264
H         61.87764       53.59962       35.44886
H         61.04271       55.34819       33.06402
H         62.40986       55.63629       34.16207
H         59.02383       56.45655       33.59801
H         61.72585       55.43484       36.81148
H         57.52686       57.54570       35.22844
H         60.21418       56.52196       38.41679
H         58.11238       57.57808       37.63718
N         59.48164       52.66733       33.17205
C         58.14383       52.07897       33.13616
C         58.05434       50.66344       33.68966
O         56.96584       50.10919       33.72624
C         57.78865       52.05298       31.64357
C         58.62553       53.19167       31.09013
C         59.93465       52.96372       31.82910
H         57.46769       52.77320       33.68495
H         58.20105       51.12343       31.18398
H         56.69984       52.09280       31.42794
H         58.71916       53.19221       29.98368
H         58.19075       54.15922       31.42823
H         60.42986       52.05082       31.42491
H         60.63007       53.80740       31.72083
N         59.17179       50.01204       34.10823
C         59.21581       48.64056       34.57729
C         59.29844       48.67074       36.08891
O         58.46472       48.05626       36.73902
C         60.42875       47.93516       33.92677
C         60.33562       47.97844       32.38697
C         61.53903       47.41089       31.69469
O         61.59952       47.46126       30.47769
O         62.56359       46.87881       32.38668
H         60.07428       50.49291       34.07036
H         58.29523       48.08507       34.28792
H         60.49268       46.88254       34.27687
H         61.35700       48.45895       34.23784
H         60.25198       49.03363       32.05048
H         59.43197       47.42739       32.04933
N         60.23257       49.44035       36.71450
C         60.30929       49.62580       38.14630
H         60.13987       50.70051       38.37658
H         59.55181       49.02757       38.69159
H         61.32126       49.34374       38.50015
H         60.90172       49.97147       36.15201
Ca        64.41613       47.61008       29.95209
O         66.18799       43.96289       30.73960
H         66.08876       43.45003       29.89775
H         66.78186       43.40359       31.29834
O         64.23557       44.41391       33.27047
H         63.51018       44.88794       33.74808
H         64.31225       43.54682       33.74080

Ca 1.0



