%chk=holoCaM.loop3.water2.frame392.chk
%nprocshared=20
%mem=10GB
%nosave
#b3lyp/svp scf=(tight,noincore,xqc) Test 
#IOP(5/87=12) Density=Current Pop=(MK,readradii) iop(6/33=2) iop(6/42=6)

holoCaM.loop3.water2.frame392 

   0  1 
C         76.38050       53.35428       71.09300
C         75.40346       52.31316       71.54235
O         74.98646       51.50594       70.72357
H         77.28394       52.86223       70.68012
H         75.90780       53.98047       70.30657
H         76.68059       54.01508       71.93321
N         74.95558       52.30089       72.82832
C         73.94023       51.37985       73.30263
C         72.68377       52.19326       73.47997
O         72.50385       52.83847       74.50422
C         74.42352       50.67645       74.58181
C         73.49338       49.61044       75.07453
O         73.84946       48.89594       76.15270
O         72.44479       49.35945       74.50199
H         75.28836       53.02710       73.48183
H         73.74319       50.59133       72.54128
H         74.58626       51.42131       75.39070
H         75.39246       50.18234       74.37020
N         71.87187       52.35990       72.40090
C         70.76830       53.30613       72.36585
C         69.69967       52.88679       73.35714
O         69.38534       53.65430       74.25593
C         70.24472       53.41589       70.91354
C         69.43041       54.68936       70.64370
C         69.05142       54.76371       69.15204
C         68.50615       56.13398       68.71724
N         67.28464       56.51082       69.42514
H         72.10901       51.84694       71.53677
H         71.17942       54.30543       72.63741
H         69.68784       52.49971       70.62138
H         71.13534       53.49551       70.24907
H         70.07543       55.56224       70.88973
H         68.52192       54.72094       71.28103
H         68.32011       53.96036       68.91574
H         69.96202       54.59029       68.53623
H         68.29512       56.09028       67.62499
H         69.28518       56.91235       68.87938
H         66.54923       55.78047       69.29022
H         67.48026       56.64585       70.44246
H         66.93955       57.41787       69.03507
N         69.13299       51.64695       73.27418
C         68.13516       51.15688       74.22691
C         68.65296       51.05164       75.66528
O         67.83186       50.89847       76.55890
C         67.55202       49.79390       73.78823
C         68.57289       48.68700       73.77878
O         68.42523       47.63230       74.60017
O         69.52534       48.72667       73.01865
H         69.41309       51.04994       72.48397
H         67.30097       51.89331       74.21962
H         67.10672       49.88092       72.77389
H         66.73665       49.51517       74.49099
N         69.97994       51.12618       75.97398
C         70.48078       51.13851       77.34125
C         70.20685       49.85302       78.09521
O         69.51628       49.88503       79.10301
H         70.66919       51.21949       75.21850
H         70.03216       52.00355       77.87468
H         71.58323       51.28967       77.32333
N         70.77602       48.69055       77.67822
C         70.66084       47.40204       78.36860
C         72.03268       46.89261       78.81619
O         72.12543       45.75562       79.25877
C         69.95942       46.35537       77.46098
C         70.81311       45.84326       76.28258
N         70.06472       44.88447       75.48089
O         71.23207       46.92664       75.50915
H         71.36083       48.75070       76.83955
H         70.01795       47.50551       79.27042
H         69.00060       46.78158       77.09442
H         69.70872       45.47118       78.08820
H         69.71301       44.12298       76.10669
H         70.73928       44.42995       74.82842
N         73.14418       47.68308       78.73784
C         74.48602       47.23408       79.06774
C         75.13113       46.36775       77.99515
O         76.28127       46.00185       78.19356
H         73.04608       48.67359       78.47964
H         74.48316       46.72226       80.05507
H         75.13605       48.13102       79.15947
N         74.48788       46.00010       76.84452
C         75.10148       45.16393       75.81029
C         74.97686       45.77503       74.42723
O         74.08719       46.58028       74.19956
C         74.38738       43.80191       75.79879
C         74.61881       43.07912       77.09759
C         73.56946       42.88014       78.00852
C         75.90352       42.60684       77.41005
C         73.80809       42.22527       79.22078
C         76.13743       41.94481       78.61558
C         75.09021       41.75426       79.52781
O         75.30499       41.12195       80.69852
H         73.50897       46.27844       76.70473
H         76.18353       45.01262       76.01537
H         74.74884       43.15775       74.96727
H         73.30076       43.98303       75.63635
H         72.57297       43.24387       77.78877
H         76.72277       42.74772       76.71546
H         72.99602       42.08555       79.92276
H         77.13318       41.58335       78.83859
H         76.17706       40.78126       80.94435
N         75.83709       45.39710       73.43534
C         75.69800       45.79997       72.03767
C         75.80840       44.54496       71.17333
O         76.87537       43.94755       71.12021
C         76.75893       46.88249       71.66525
C         76.51839       48.15780       72.52165
C         76.70151       47.22304       70.16398
C         77.50942       49.29503       72.26321
H         76.62337       44.77469       73.68025
H         74.69546       46.25657       71.87364
H         77.77273       46.47910       71.88250
H         76.60041       47.89388       73.59689
H         75.49072       48.54368       72.33728
H         76.86659       46.31834       69.54701
H         75.72383       47.67319       69.90662
H         77.50487       47.93160       69.88033
H         78.54834       48.95120       72.44445
H         77.41678       49.68737       71.23042
H         77.29084       50.13993       72.94866
N         74.72357       44.06762       70.50012
C         74.74485       42.85537       69.67512
C         75.51811       43.07054       68.37906
O         76.02985       44.15310       68.16208
C         73.29541       42.43368       69.35637
O         72.64543       43.43283       68.62012
H         73.82829       44.56340       70.62401
H         75.20318       42.02343       70.25401
H         72.76818       42.26153       70.32276
H         73.27312       41.48383       68.78158
H         71.67190       43.29992       68.75554
N         75.60601       42.08265       67.44275
C         76.18180       42.29039       66.11439
C         75.38687       43.34062       65.35198
O         75.97709       44.27263       64.82442
C         76.16827       40.97943       65.31751
H         75.20457       41.15892       67.66287
H         77.24571       42.60634       66.20261
H         76.77132       40.20991       65.84441
H         75.13295       40.59724       65.19016
H         76.61465       41.14018       64.31178
N         74.02680       43.25272       65.28518
C         73.16909       44.19525       64.56800
C         73.41968       45.63058       64.99417
O         73.68756       46.47038       64.14683
C         71.69371       43.84162       64.82002
H         73.57537       42.47397       65.79092
H         73.36257       44.10759       63.47637
H         71.48289       42.80581       64.47947
H         71.45040       43.90523       65.90378
H         71.02608       44.53684       64.26850
N         73.35386       45.97030       66.30674
C         73.56191       47.32011       66.82804
C         74.93928       47.82716       66.43125
O         75.02828       48.85827       65.77891
C         73.36544       47.29642       68.36556
C         71.89289       46.99233       68.71538
C         71.68969       46.61385       70.15498
O         71.21351       45.52376       70.42690
O         71.98604       47.45741       71.15466
H         73.16174       45.20895       66.97065
H         72.80460       48.01304       66.39625
H         73.64089       48.27279       68.82208
H         74.02734       46.50782       68.78589
H         71.52173       46.13868       68.11311
H         71.26746       47.87437       68.45861
N         76.05633       47.12610       66.75084
C         77.38354       47.52614       66.33943
H         78.12719       46.77980       66.69434
H         77.43826       47.57219       65.23044
H         77.63632       48.51665       66.77036
H         75.95685       46.26157       67.28368
Ca        71.47947       46.75808       73.25125
O         68.88605       45.03816       72.63237
H         68.21670       45.35112       73.29076
H         68.88948       44.05363       72.73581
O         72.47408       44.02066       72.94312
H         73.03632       43.21866       72.80673
H         71.60862       43.79593       72.51832

Ca 1.0



