%chk=holoCaM.loop1.water2.frame219.chk
%nprocshared=20
%mem=10GB
%nosave
#b3lyp/svp scf=(tight,noincore,xqc) Test 
#IOP(5/87=12) Density=Current Pop=(MK,readradii) iop(6/33=2) iop(6/42=6)

holoCaM.loop1.water2.frame219 

   0  1 
C         33.87854       67.08355       29.43728
C         33.64170       65.92629       30.35450
O         32.77786       66.03208       31.21476
H         34.67863       66.86017       28.70207
H         32.93982       67.30858       28.88826
H         34.17363       67.97074       30.03516
N         34.35580       64.77103       30.22610
C         34.10113       63.62821       31.08609
C         34.44985       63.98648       32.52221
O         35.58793       64.34990       32.78648
C         34.88629       62.38370       30.62993
C         34.34455       61.14356       31.28648
O         34.83297       60.05965       31.03028
O         33.25416       61.22098       32.07540
H         35.06217       64.69419       29.47793
H         33.01818       63.38829       30.97552
H         35.97244       62.50716       30.83255
H         34.74774       62.24093       29.53529
N         33.49970       63.93072       33.49361
C         33.68690       64.46338       34.83825
C         34.03828       63.39346       35.86321
O         34.49031       63.76765       36.93656
C         32.40601       65.24299       35.21041
C         32.42856       65.94177       36.57728
C         31.19774       66.84251       36.79036
C         29.85651       66.08595       36.77134
N         28.74077       67.00489       36.99543
H         32.56483       63.60489       33.22643
H         34.54227       65.17523       34.82153
H         31.55304       64.53130       35.18433
H         32.24535       66.01371       34.42455
H         33.33159       66.58690       36.63124
H         32.47760       65.19082       37.39426
H         31.18533       67.62669       36.00236
H         31.30791       67.34449       37.77598
H         29.85710       65.30496       37.56366
H         29.70423       65.59064       35.78892
H         28.83547       67.46814       37.92805
H         28.71815       67.73023       36.24167
H         27.84345       66.46849       36.97164
N         33.86322       62.06011       35.62936
C         34.21142       61.03044       36.61144
C         35.21590       60.01102       36.06962
O         35.59708       59.12140       36.81790
C         32.92866       60.40260       37.18766
C         32.01491       59.82856       36.15280
O         30.77583       60.33407       36.00241
O         32.37948       58.89725       35.45860
H         33.42972       61.75803       34.74480
H         34.72116       61.48495       37.48913
H         32.37547       61.20426       37.72600
H         33.18698       59.61877       37.93199
N         35.76441       60.12717       34.82590
C         36.87955       59.31664       34.36330
C         36.56492       57.85711       34.13378
O         37.25434       57.00891       34.68149
H         35.46956       60.89225       34.20354
H         37.72903       59.42246       35.07371
H         37.21911       59.72001       33.38415
N         35.59924       57.49890       33.24643
C         35.40853       56.13603       32.75068
C         35.63882       56.07345       31.23396
O         35.44145       55.01632       30.65011
C         34.01651       55.60089       33.14106
C         32.88260       56.48351       32.72406
O         31.98154       56.88329       33.63913
O         32.75779       56.82784       31.56309
H         35.01372       58.24454       32.84154
H         36.14370       55.43461       33.20216
H         33.96972       55.47842       34.24462
H         33.87665       54.59604       32.68733
N         36.09083       57.15475       30.53508
C         36.32869       57.17209       29.10426
C         35.06057       57.02328       28.29516
O         35.07207       56.27925       27.32958
H         36.31873       58.02651       31.02955
H         37.08666       56.41049       28.81691
H         36.74815       58.16970       28.84549
N         33.97252       57.79788       28.58108
C         32.76947       57.90758       27.74172
C         31.96433       59.15952       28.12023
O         32.21010       59.75768       29.15731
C         31.82114       56.66838       27.77671
C         32.41274       55.34236       27.27065
O         31.25403       56.50894       29.05254
H         34.07891       58.43027       29.38098
H         33.12324       58.08179       26.70184
H         30.98436       56.88215       27.07769
H         31.83671       55.90268       29.57593
H         32.81821       55.46471       26.24450
H         33.19865       54.96171       27.95428
H         31.61618       54.56935       27.24360
N         31.01745       59.64970       27.26451
C         30.29386       60.89695       27.50722
C         28.79382       60.64352       27.44770
O         28.27358       60.30133       26.39587
C         30.77241       61.97180       26.48324
C         32.26953       62.29621       26.75770
C         29.91678       63.25112       26.55287
C         32.90959       63.24553       25.74637
H         30.85544       59.16226       26.37128
H         30.52729       61.29473       28.51966
H         30.66486       61.55148       25.45842
H         32.86486       61.36001       26.72521
H         32.37596       62.73391       27.77613
H         29.99574       63.72035       27.55231
H         30.22864       63.98414       25.78302
H         28.85341       63.02590       26.33742
H         33.97930       63.38751       26.01079
H         32.85016       62.81209       24.72620
H         32.43016       64.24408       25.75910
N         28.04163       60.79961       28.57444
C         26.58920       60.63976       28.62512
C         25.89661       61.85899       28.02580
O         26.56530       62.79287       27.60611
C         26.12498       60.47590       30.10412
C         26.74094       59.23957       30.76571
O         26.45910       61.62318       30.84131
H         28.53319       61.03087       29.44644
H         26.29336       59.71744       28.07828
H         25.02099       60.33495       30.11994
H         25.89169       61.62191       31.65600
H         27.84479       59.32242       30.81392
H         26.35572       59.13923       31.80269
H         26.46788       58.32447       30.19976
N         24.53561       61.94153       28.02402
C         23.81261       63.16876       27.70070
C         24.17911       64.25894       28.69620
O         24.41575       65.38343       28.28047
C         22.27705       62.95779       27.72726
C         21.81636       61.98890       26.63416
O         21.86317       62.48933       28.98611
H         23.99402       61.12279       28.33590
H         24.07179       63.50956       26.67238
H         21.80632       63.94930       27.51760
H         20.91900       62.77289       29.10521
H         22.24856       60.97833       26.78307
H         20.70912       61.90519       26.65202
H         22.12048       62.36864       25.63529
N         24.22910       63.99391       30.03600
C         24.51659       65.01866       31.03850
C         25.93859       65.57471       30.95048
O         26.22637       66.52661       31.66320
C         24.29338       64.48788       32.48027
C         22.93145       63.80451       32.73731
C         21.70001       64.60364       32.28685
C         21.55251       65.95560       32.99477
N         20.35821       66.65187       32.51738
H         24.01866       63.03541       30.34399
H         23.80479       65.85467       30.86555
H         24.40296       65.34144       33.18439
H         25.08479       63.74902       32.73598
H         22.85444       63.57163       33.82190
H         22.90175       62.83143       32.20551
H         20.79852       63.98901       32.50049
H         21.74376       64.75866       31.18774
H         22.44085       66.59243       32.79576
H         21.47410       65.79257       34.09231
H         20.27229       67.56807       33.01279
H         20.43578       66.82946       31.48902
H         19.50488       66.07856       32.71046
N         26.88581       65.02437       30.13511
C         28.26677       65.49188       30.05443
C         28.60161       66.01339       28.65836
O         29.72154       66.46687       28.46698
C         29.21360       64.33239       30.44574
C         28.89850       63.79368       31.85327
C         29.74543       62.60923       32.22117
O         29.75555       61.61136       31.52005
O         30.44064       62.61245       33.37076
H         26.64389       64.20678       29.56726
H         28.43643       66.33520       30.75905
H         30.27181       64.67407       30.40801
H         29.08431       63.50770       29.71149
H         27.84357       63.46141       31.89287
H         29.03525       64.60025       32.60567
N         27.68873       66.00172       27.64091
C         27.94806       66.51096       26.31019
H         27.21981       67.31881       26.08250
H         28.97309       66.91982       26.20178
H         27.80969       65.69331       25.57169
H         26.75084       65.62084       27.79192
Ca        31.96217       59.48783       32.65278
O         29.48783       57.42887       31.62733
H         28.62794       57.07244       31.96447
H         30.02960       56.62292       31.44177
O         28.45259       59.32633       33.78197
H         29.13558       59.99041       34.04830
H         28.67364       58.51659       34.30732

Ca 1.0



