%chk=holoCaM-CaMKII.loop2.water2.frame263.chk
%nprocshared=20
%mem=10GB
%nosave
#b3lyp/svp scf=(tight,noincore,xqc) Test 
#IOP(5/87=12) Density=Current Pop=(MK,readradii) iop(6/33=2) iop(6/42=6)

holoCaM-CaMKII.loop2.water2.frame263 

   -2  1 
C         81.99741      118.21993       52.80930
C         82.90694      118.64502       51.69295
O         83.21887      117.82334       50.84892
H         81.06068      117.81235       52.37013
H         82.47892      117.43465       53.42626
H         81.72343      119.07807       53.45858
N         83.36777      119.92298       51.62031
C         84.09819      120.46272       50.47888
C         85.54741      120.76595       50.81781
O         85.82173      121.30583       51.88024
C         83.36633      121.73056       50.01481
C         84.08593      122.41522       48.89974
O         84.46303      123.69860       49.04800
O         84.35488      121.81051       47.87540
H         83.13997      120.57137       52.39035
H         84.09391      119.74439       49.62775
H         83.27334      122.44756       50.85918
H         82.34487      121.45647       49.67875
N         86.52496      120.47493       49.90251
C         87.94837      120.69871       50.12407
C         88.60111      121.65577       49.11983
O         89.75899      121.98299       49.34364
C         88.66239      119.34379       50.04665
H         86.24397      120.05261       49.00834
H         88.10536      121.12573       51.13785
H         89.74694      119.45072       50.25809
H         88.22514      118.63632       50.78237
H         88.54275      118.90764       49.02933
N         87.98370      122.10020       47.97905
C         88.69460      122.89378       46.96356
C         87.85099      123.98668       46.28787
O         88.39737      124.69613       45.45385
C         89.36084      121.95223       45.93309
C         88.41403      121.08935       45.14854
O         88.85544      120.30946       44.32037
O         87.08901      121.15360       45.35026
H         87.05374      121.72904       47.75274
H         89.53619      123.43735       47.44825
H         90.06267      121.28107       46.47471
H         89.95922      122.55872       45.21864
N         86.54824      124.22437       46.61610
C         85.76309      125.33023       46.07305
C         85.34064      125.19204       44.61808
O         84.73063      126.12370       44.11266
H         86.11444      123.66069       47.34800
H         86.33533      126.27299       46.21136
H         84.82340      125.42156       46.65997
N         85.60000      124.07561       43.88349
C         85.21538      123.91146       42.47840
C         83.69611      123.81767       42.19297
O         83.35397      123.62020       41.03446
C         85.96777      122.70615       41.86230
C         85.89057      121.37392       42.62504
N         86.30959      120.30767       41.72862
O         84.60661      121.11286       43.09316
H         86.13867      123.32288       44.32851
H         85.58167      124.79107       41.90287
H         87.05051      122.95281       41.80357
H         85.61747      122.57150       40.81478
H         87.31253      120.44373       41.47105
H         86.23106      119.41303       42.24128
N         82.72789      123.99730       43.14063
C         81.29176      123.97513       42.84901
C         80.68932      122.59756       42.56277
O         79.49410      122.53676       42.31516
H         83.00061      124.25577       44.09195
H         81.08513      124.66360       41.99921
H         80.74965      124.37293       43.73355
N         81.43768      121.46048       42.57784
C         80.94701      120.10812       42.29395
C         81.33981      119.13657       43.39607
O         82.43878      119.24551       43.90653
C         81.59042      119.58831       40.98527
C         81.08309      120.35359       39.76699
O         82.99280      119.69341       41.03189
H         82.43036      121.55961       42.76868
H         79.84222      120.08462       42.16227
H         81.29403      118.52379       40.82505
H         83.33431      118.91421       41.54278
H         81.54947      119.93566       38.84971
H         79.98095      120.24183       39.68198
H         81.33831      121.43104       39.84038
N         80.54756      118.07949       43.73476
C         81.01433      117.03267       44.64681
C         82.02837      116.13377       43.92997
O         81.64646      115.42253       43.01077
C         79.81400      116.19373       45.19173
C         78.80340      117.04664       46.00860
C         80.27838      114.98668       46.02531
C         79.36337      117.66647       47.29473
H         79.61943      117.99028       43.29374
H         81.51060      117.50851       45.51884
H         79.25829      115.77984       44.32056
H         77.94581      116.39843       46.29286
H         78.40220      117.86372       45.37316
H         80.90256      115.30459       46.88430
H         79.39894      114.41971       46.39570
H         80.86959      114.28626       45.40415
H         80.17291      118.37993       47.06531
H         78.55956      118.22579       47.81675
H         79.74204      116.89241       47.99311
N         83.33941      116.10692       44.31547
C         84.33257      115.17933       43.76260
C         84.16844      113.79385       44.36250
O         83.31022      113.60999       45.20933
C         85.76229      115.65028       44.10714
C         86.09834      116.94709       43.46045
O         86.48320      117.99300       44.21339
O         86.07761      117.03958       42.24335
H         83.64219      116.76950       45.03973
H         84.23430      115.13358       42.65495
H         86.50888      114.92890       43.72176
H         85.88391      115.72871       45.21042
N         84.99020      112.76686       43.99927
C         84.96459      111.46916       44.66275
C         85.40857      111.59773       46.13476
O         84.61495      111.20164       46.97568
C         85.75997      110.41482       43.85982
C         85.74344      109.06727       44.53705
C         84.53738      108.36345       44.70200
C         86.93876      108.50335       45.01422
C         84.53033      107.11696       45.33406
C         86.92598      107.25906       45.65002
C         85.72325      106.56582       45.80903
H         85.66587      112.91610       43.23357
H         83.91358      111.09987       44.64783
H         86.79564      110.73428       43.68667
H         85.31661      110.31277       42.84534
H         83.60456      108.77534       44.33806
H         87.87886      109.02960       44.90243
H         83.59942      106.57853       45.45563
H         87.84932      106.83303       46.02002
H         85.71576      105.60168       46.30003
N         86.60438      112.15253       46.55585
C         86.98917      112.32052       47.96594
C         86.04821      113.13962       48.84484
O         86.33953      113.28550       50.02492
C         88.30896      113.10279       47.89222
C         88.89824      112.60759       46.60526
C         87.67777      112.60399       45.69126
H         87.12762      111.30361       48.39489
H         88.09100      114.18595       47.72626
H         88.95640      113.01114       48.79045
H         89.76039      113.19261       46.22026
H         89.22329      111.55498       46.77545
H         87.43532      113.61549       45.31429
H         87.93906      111.92275       44.87368
N         84.93186      113.73039       48.34464
C         84.03084      114.58365       49.09911
C         82.75240      113.79941       49.34077
O         82.38070      113.62656       50.49312
C         83.86613      115.91815       48.31839
C         85.24311      116.62874       48.23123
C         85.33139      117.86539       47.37195
O         86.42598      118.37643       47.20137
O         84.26868      118.39290       46.73913
H         84.70074      113.61333       47.35458
H         84.44589      114.82781       50.10433
H         83.12450      116.57361       48.81171
H         83.48725      115.69966       47.29758
H         85.97275      115.91999       47.78786
H         85.58852      116.88306       49.25744
N         82.08981      113.20284       48.31130
C         80.97009      112.29960       48.48450
H         80.09258      112.67513       47.92355
H         81.24918      111.30294       48.07709
H         80.68864      112.16755       49.54935
H         82.42418      113.34187       47.35525
Ca        84.62252      119.98500       45.12766
O         81.91380      120.21471       47.22183
H         81.19839      120.79220       47.58932
H         82.10654      119.56590       47.94425
O         83.03303      122.42027       45.64362
H         83.12042      123.26620       46.15216
H         82.05878      122.30488       45.51950

Ca 1.0



