%chk=holoCaM-CaMKII.loop3.water2.frame424.chk
%nprocshared=20
%mem=10GB
%nosave
#b3lyp/svp scf=(tight,noincore,xqc) Test 
#IOP(5/87=12) Density=Current Pop=(MK,readradii) iop(6/33=2) iop(6/42=6)

holoCaM-CaMKII.loop3.water2.frame424 

   0  1 
C         59.72487       60.69720       44.17011
C         60.17678       60.10939       45.47413
O         60.88203       59.11031       45.45828
H         59.09483       61.59804       44.32767
H         60.61217       60.98988       43.57028
H         59.13400       59.94541       43.60738
N         59.82726       60.69438       46.65424
C         60.27690       60.19228       47.94935
C         59.65869       58.82269       48.25110
O         58.88723       58.31638       47.44742
C         60.00048       61.27297       49.02813
C         60.76240       61.06301       50.30619
O         60.12922       61.04882       51.48893
O         61.97401       60.93533       50.27898
H         59.26450       61.55913       46.62281
H         61.38068       60.07631       47.89422
H         58.90958       61.37441       49.21715
H         60.37381       62.24342       48.63368
N         59.98167       58.15369       49.38995
C         59.55886       56.79352       49.70425
C         58.57133       56.80921       50.86583
O         57.53295       56.17255       50.75767
C         60.84042       55.98634       49.99196
C         60.66208       54.47160       50.17415
C         62.04948       53.82220       50.36813
C         62.03580       52.28643       50.42031
N         61.31438       51.76908       51.58202
H         60.61689       58.60304       50.05928
H         59.05836       56.31807       48.83066
H         61.33047       56.40718       50.88684
H         61.51963       56.13215       49.12184
H         60.18881       54.05219       49.25988
H         60.00981       54.26802       51.04907
H         62.52277       54.21688       51.29341
H         62.69365       54.10423       49.50548
H         63.09239       51.93834       50.47567
H         61.59363       51.87872       49.48467
H         61.73089       52.15004       52.46252
H         60.30139       52.01579       51.52557
H         61.40160       50.72683       51.59403
N         58.79596       57.57588       51.97382
C         57.87718       57.66795       53.11472
C         57.17577       59.02088       53.22047
O         56.36284       59.17519       54.12206
C         58.63505       57.32194       54.41828
C         59.80684       58.22653       54.73305
O         60.07249       59.31370       53.98137
O         60.57032       57.92025       55.63352
H         59.65170       58.14222       51.99187
H         57.05939       56.92328       52.99942
H         59.03229       56.29107       54.29207
H         57.93934       57.31351       55.28486
N         57.39736       60.03171       52.33172
C         56.68498       61.30032       52.36858
C         56.87851       62.05021       53.66745
O         55.89030       62.30066       54.34301
H         58.05920       59.88952       51.56004
H         55.60088       61.10308       52.21537
H         57.03232       61.94453       51.53179
N         58.11686       62.45383       54.07388
C         58.34293       63.19229       55.31834
C         58.94166       64.57612       55.09638
O         59.11457       65.28129       56.08317
C         59.20454       62.35470       56.29267
C         60.61553       62.04367       55.84350
N         61.42765       61.32408       56.65024
O         61.03757       62.43636       54.76770
H         58.92365       62.21816       53.48023
H         57.37390       63.36612       55.83465
H         58.67976       61.39373       56.48212
H         59.27199       62.89976       57.25997
H         61.09495       60.98636       57.56507
H         62.39340       61.10930       56.36321
N         59.28416       65.04511       53.86017
C         59.85851       66.36437       53.64457
C         61.28056       66.30893       53.12618
O         61.84566       67.36700       52.90740
H         59.14426       64.45447       53.02713
H         59.88463       66.95600       54.58487
H         59.22215       66.91750       52.92039
N         61.92809       65.12240       52.90692
C         63.30412       65.06183       52.41804
C         63.67744       63.66621       51.93116
O         62.98128       62.70470       52.20583
C         64.32651       65.59905       53.45427
C         64.38069       64.82741       54.76228
C         65.56771       64.17837       55.14886
C         63.27123       64.77557       55.62881
C         65.63906       63.48932       56.36530
C         63.34456       64.08474       56.84109
C         64.52521       63.43955       57.21468
O         64.57849       62.78257       58.39112
H         61.41836       64.24680       53.05295
H         63.33919       65.69988       51.50744
H         64.10427       66.65838       53.69549
H         65.32899       65.59280       52.97317
H         66.44299       64.20669       54.51235
H         62.34637       65.27412       55.38663
H         66.56111       62.99699       56.64760
H         62.48090       64.05637       57.49430
H         65.37829       62.32894       58.69295
N         64.73421       63.53583       51.07646
C         65.05903       62.29798       50.37359
C         66.54327       62.00086       50.50313
O         67.34763       62.89900       50.30570
C         64.58518       62.41056       48.88824
C         64.67537       61.03258       48.18362
C         65.30999       63.51557       48.09498
C         64.05674       61.01686       46.78475
H         65.25612       64.38580       50.82494
H         64.48536       61.45037       50.80614
H         63.50586       62.68257       48.92222
H         64.10475       60.29729       48.78895
H         65.72923       60.68878       48.11977
H         65.20108       64.49947       48.59224
H         66.38706       63.28101       47.97451
H         64.86339       63.63340       47.08781
H         64.63484       61.64667       46.07974
H         64.05716       59.97909       46.39549
H         63.00697       61.37391       46.81886
N         66.97779       60.73572       50.77141
C         68.39333       60.39098       50.87124
C         68.86669       59.66973       49.61939
O         68.07314       59.40915       48.72753
C         68.62987       59.55450       52.14154
O         67.91364       58.35171       52.06890
H         66.28379       59.98029       50.85088
H         69.00875       61.31309       50.94524
H         68.28914       60.14196       53.02335
H         69.71277       59.33052       52.25549
H         68.04753       57.89212       52.93803
N         70.18575       59.34749       49.48404
C         70.74347       58.66255       48.32031
C         70.09023       57.31416       48.12759
O         69.72239       56.98683       47.00856
C         72.25492       58.48007       48.48558
H         70.82664       59.60426       50.24984
H         70.58849       59.28245       47.40827
H         72.67758       57.98222       47.58603
H         72.74310       59.47222       48.59349
H         72.48540       57.86486       49.38101
N         69.87608       56.49675       49.19509
C         69.16716       55.22830       49.10046
C         67.76805       55.43101       48.54560
O         67.42087       54.78540       47.56628
C         69.07686       54.57226       50.48496
H         70.19814       56.81383       50.12327
H         69.73370       54.53716       48.43694
H         68.55223       53.59559       50.41373
H         70.09664       54.39406       50.88725
H         68.52576       55.22173       51.19929
N         66.90755       56.31467       49.13077
C         65.52409       56.48936       48.68741
C         65.41015       57.06641       47.27526
O         64.30426       57.10094       46.75255
C         64.72621       57.37708       49.67340
C         64.73960       56.82036       51.10904
C         63.82683       57.58817       52.02045
O         62.91530       57.00281       52.58134
O         63.98643       58.90602       52.25113
H         67.24782       56.84530       49.94387
H         65.04844       55.48277       48.68462
H         63.67155       57.42734       49.32213
H         65.14253       58.40308       49.67280
H         65.75815       56.84814       51.53950
H         64.40466       55.76127       51.08215
N         66.49117       57.53827       46.59328
C         66.40765       58.04489       45.24072
H         67.41400       58.36975       44.89786
H         66.04408       57.24734       44.55900
H         65.72525       58.91575       45.19384
H         67.41161       57.54786       47.03790
Ca        62.20225       59.73118       53.36641
O         64.92342       61.29727       53.96146
H         65.55598       60.63990       54.34471
H         64.25223       61.44310       54.67476
O         64.02514       58.62465       55.94831
H         64.21253       59.01034       56.84055
H         63.05375       58.76167       55.82226

Ca 1.0



