%chk=holoCaM.loop4.water3.frame453.chk
%nprocshared=20
%mem=10GB
%nosave
#b3lyp/svp scf=(tight,noincore,xqc) Test 
#IOP(5/87=12) Density=Current Pop=(MK,readradii) iop(6/33=2) iop(6/42=6)

holoCaM.loop4.water3.frame453 

   -3  1 
C         37.20890       62.98540       56.76945
C         38.15857       62.63614       57.87974
O         37.98522       63.12006       58.98661
H         36.41141       63.67081       57.12888
H         37.75635       63.46996       55.93573
H         36.72396       62.05765       56.39414
N         39.16079       61.74324       57.65751
C         40.02405       61.20934       58.70732
C         41.44815       61.02553       58.17270
O         41.61569       60.37395       57.14978
C         39.42505       59.85979       59.14483
C         40.28077       59.12791       60.14078
O         40.82656       58.10434       59.76137
O         40.48071       59.53648       61.42355
H         39.20998       61.30875       56.72182
H         40.02918       61.86804       59.60245
H         39.33822       59.23036       58.22932
H         38.40213       59.98960       59.55343
N         42.52394       61.53610       58.84272
C         43.91609       61.39053       58.41060
C         44.73685       60.51487       59.37285
O         45.84017       60.15366       58.99271
C         44.53433       62.82479       58.21660
C         43.82468       63.52555       57.02536
C         46.06629       62.82141       58.01827
C         44.28263       64.96390       56.76288
H         42.34930       62.05594       59.70819
H         43.95744       60.84818       57.43972
H         44.34786       63.41146       59.14507
H         42.73278       63.56297       57.22521
H         43.98797       62.93425       56.09763
H         46.35404       62.23826       57.11951
H         46.46451       63.85160       57.93331
H         46.57966       62.41671       58.91402
H         43.68884       65.38986       55.92700
H         44.13286       65.59198       57.66576
H         45.34633       65.00482       56.45168
N         44.29594       60.13000       60.61099
C         45.14268       59.36056       61.54055
C         44.52670       58.05143       62.02839
O         45.22731       57.30211       62.69857
C         45.54336       60.24819       62.73927
C         44.39589       60.74845       63.57699
O         43.24154       60.47018       63.30105
O         44.64945       61.52351       64.64763
H         43.37300       60.44834       60.92537
H         46.08843       59.07055       61.03588
H         46.09527       61.13184       62.35442
H         46.23070       59.67641       63.39988
N         43.24118       57.70592       61.76059
C         42.62465       56.46753       62.20908
C         42.64063       56.34256       63.71443
O         43.19314       55.37466       64.21656
H         42.66662       58.34948       61.21534
H         43.15557       55.60481       61.74952
H         41.56747       56.43776       61.86630
N         42.05131       57.29175       64.49623
C         42.03144       57.22895       65.95881
C         40.60755       57.19443       66.50527
O         40.44445       57.22410       67.71816
C         42.83007       58.41336       66.54747
C         42.11693       59.73142       66.46049
O         41.74031       60.16561       65.38924
O         41.86566       60.42938       67.58316
H         41.60638       58.09543       64.02842
H         42.54911       56.30951       66.30780
H         43.81523       58.47777       66.03619
H         43.02210       58.21614       67.62460
N         39.52530       57.12375       65.67628
C         38.15470       57.12683       66.15120
C         37.66231       58.49066       66.59820
O         36.49896       58.56360       66.96787
H         39.65965       57.01534       64.66206
H         38.03141       56.36838       66.95470
H         37.49321       56.82856       65.30903
N         38.44400       59.61536       66.56743
C         37.94011       60.94085       66.91651
C         38.12873       61.89667       65.70181
O         37.61152       61.28989       64.54188
C         38.65570       61.48054       68.17990
C         38.62841       60.49538       69.36447
C         39.22867       61.07833       70.62641
N         39.32967       60.31659       71.73998
O         39.62266       62.23595       70.65476
H         39.42263       59.54983       66.26941
H         36.85433       60.88512       67.15149
H         38.15431       62.41192       68.51173
H         39.71272       61.71795       67.94212
H         39.20786       59.58794       69.08969
H         37.58042       60.19785       69.58413
H         39.01287       59.33620       71.73785
H         39.73322       60.70577       72.60558
N         37.42439       63.17781       65.91472
C         37.62806       64.15984       64.82948
C         38.55477       65.29062       65.28622
O         38.19542       66.03614       66.18753
C         36.24779       64.71263       64.37802
C         36.39268       65.67744       63.19141
C         35.29070       63.57383       63.98413
H         37.58154       63.60759       66.85146
H         38.07765       63.65516       63.94651
H         35.78146       65.26027       65.22701
H         35.39775       66.06777       62.88930
H         37.02188       66.54519       63.46877
H         36.85267       65.16180       62.32081
H         34.30406       63.98515       63.68303
H         35.70027       62.99012       63.13742
H         35.11744       62.88530       64.83798
N         39.77648       65.45717       64.70710
C         40.72444       66.51058       65.07511
C         40.23180       67.87276       64.58457
O         39.22894       67.93201       63.89596
C         42.10116       66.15186       64.45384
C         43.24770       67.06334       64.80017
N         43.64926       67.21659       66.08249
O         43.83979       67.65038       63.90689
H         40.05908       64.77574       63.99414
H         40.82994       66.51612       66.18213
H         41.98904       66.11572       63.35325
H         42.39115       65.13912       64.80050
H         43.17137       66.72264       66.84925
H         44.44711       67.82774       66.30768
N         40.89081       69.01860       64.91117
C         40.51917       70.34402       64.41229
C         40.66563       70.43447       62.89644
O         39.69862       70.78921       62.23668
C         41.28234       71.47183       65.15469
C         42.79274       71.38356       65.19849
C         43.42410       70.71624       66.26503
C         43.58624       72.01791       64.22906
C         44.81567       70.66020       66.34672
C         44.98361       71.96692       64.31749
C         45.60143       71.28342       65.37602
O         46.94460       71.22531       65.47697
H         41.67963       68.93784       65.55804
H         39.44822       70.53142       64.65517
H         40.92677       71.46770       66.20869
H         40.97355       72.46415       64.75851
H         42.83871       70.23731       67.04034
H         43.12550       72.55700       63.41102
H         45.28219       70.13594       67.17175
H         45.58524       72.46157       63.56577
H         47.52948       71.64965       64.83384
N         41.82422       70.07917       62.27253
C         41.99989       70.07734       60.81558
C         40.91941       69.25183       60.13425
O         40.32975       69.71429       59.16757
C         43.37771       69.47089       60.43474
C         44.60908       70.28468       60.87360
C         44.77408       71.57139       60.10597
O         45.75914       71.73606       59.40315
O         43.86216       72.55655       60.19998
H         42.59593       69.73940       62.86344
H         41.93148       71.10862       60.41541
H         43.44514       69.33644       59.33144
H         43.44703       68.46002       60.89552
H         45.50599       69.65592       60.67775
H         44.58283       70.49105       61.96021
N         40.62017       68.01075       60.59536
C         39.66904       67.10326       59.95820
C         38.27355       67.70444       59.86740
O         37.73008       67.76950       58.77332
C         39.61754       65.76788       60.72839
C         40.98033       65.04194       60.72572
C         40.95459       63.77965       61.53595
O         41.99357       63.17990       61.75441
O         39.80413       63.31123       62.04866
H         41.11108       67.70331       61.44662
H         40.01732       66.87659       58.92532
H         38.86111       65.10652       60.25929
H         39.30329       65.96531       61.77741
H         41.75848       65.68915       61.16674
H         41.29441       64.80625       59.68626
N         37.62728       68.15637       60.97434
C         36.28035       68.68319       60.93503
H         35.57704       67.89077       60.60132
H         35.97576       69.01656       61.95084
H         36.22339       69.55014       60.24391
H         38.10555       68.12903       61.87751
Ca        39.24136       60.71036       62.97459
O         41.24255       62.76049       64.87844
H         42.18201       62.77140       64.56749
H         41.30347       62.86434       65.86099
O         37.90553       58.13124       62.90646
H         37.48742       58.73129       62.23979
H         38.72002       57.79107       62.45807
O         37.12572       61.58360       61.20149
H         37.35790       62.49136       61.52057
H         36.73538       61.13216       61.99025

Ca 1.0



