%chk=holoCaM-CaMKII.loop1.water2.frame231.chk
%nprocshared=20
%mem=10GB
%nosave
#b3lyp/svp scf=(tight,noincore,xqc) Test 
#IOP(5/87=12) Density=Current Pop=(MK,readradii) iop(6/33=2) iop(6/42=6)

holoCaM-CaMKII.loop1.water2.frame231 

   0  1 
C         73.28597       27.52103       54.67826
C         73.29188       26.44739       55.72040
O         74.25129       26.36077       56.47534
H         72.42525       28.19932       54.85728
H         74.22271       28.11781       54.72931
H         73.20033       27.06776       53.67017
N         72.23040       25.59916       55.84293
C         72.17165       24.60803       56.90490
C         73.29290       23.58094       56.74757
O         73.33269       22.87741       55.74745
C         70.79669       23.90347       56.96602
C         70.67415       23.11585       58.24578
O         71.66610       23.20047       59.15355
O         69.68298       22.44956       58.47141
H         71.42734       25.70964       55.20457
H         72.28587       25.17624       57.85681
H         70.66969       23.24459       56.07906
H         69.97905       24.65571       56.96049
N         74.26000       23.48224       57.70277
C         75.46128       22.65534       57.56463
C         75.24469       21.19426       57.97858
O         76.17297       20.41156       57.84251
C         76.61714       23.28234       58.40865
C         77.91764       23.53810       57.62611
C         78.66746       22.31067       57.10042
C         79.24328       21.43494       58.22140
N         80.06406       20.36178       57.66069
H         74.19523       24.14455       58.48468
H         75.75728       22.70112       56.49311
H         76.78050       22.73280       59.36211
H         76.32787       24.31106       58.71315
H         78.60996       24.11730       58.27638
H         77.66319       24.18538       56.75783
H         79.51983       22.69231       56.49654
H         78.01634       21.71396       56.42759
H         78.42564       20.99758       58.83096
H         79.87593       22.05854       58.89133
H         80.43924       19.77234       58.43797
H         79.49142       19.76354       57.02201
H         80.86925       20.76955       57.13074
N         74.06830       20.75840       58.51935
C         73.85207       19.40118       59.02102
C         72.76345       18.70498       58.22542
O         72.98587       17.60086       57.74893
C         73.38662       19.42702       60.49409
C         74.32264       20.07579       61.47068
O         75.41940       19.59349       61.70142
O         73.89141       21.14399       62.16972
H         73.29017       21.41995       58.60899
H         74.78269       18.79263       58.96893
H         73.20850       18.38592       60.84365
H         72.41831       19.95651       60.55672
N         71.53414       19.28229       58.10129
C         70.37163       18.63348       57.52204
C         69.22730       18.55695       58.52470
O         68.16028       18.09457       58.14740
H         71.39288       20.23368       58.46835
H         70.60732       17.60484       57.17168
H         70.03934       19.23030       56.64685
N         69.37013       18.97923       59.81975
C         68.30831       18.91444       60.82109
C         67.09799       19.79438       60.50499
O         66.08840       19.63836       61.17733
C         68.87537       19.24572       62.22809
C         69.50176       20.61453       62.37225
O         69.55427       21.39420       61.43606
O         70.04351       20.96959       63.55204
H         70.28668       19.31336       60.13507
H         67.95198       17.86122       60.85028
H         69.66434       18.50004       62.46725
H         68.06942       19.14464       62.98515
N         67.12091       20.74440       59.52674
C         65.96584       21.54271       59.14312
C         66.07527       23.00536       59.52815
O         65.21786       23.76399       59.09751
H         67.98863       20.91016       59.00896
H         65.02841       21.15973       59.60032
H         65.85146       21.45413       58.04114
N         67.02640       23.46805       60.39408
C         67.07504       24.85412       60.86416
C         68.44562       25.47393       60.65851
O         69.38652       24.77489       60.31396
C         66.67457       24.92558       62.35924
C         65.20860       24.53026       62.58222
O         67.52845       24.14059       63.15530
H         67.69813       22.80352       60.79342
H         66.35896       25.47795       60.28535
H         66.76392       25.97708       62.70738
H         67.28637       23.18547       63.03093
H         65.02290       23.48330       62.26232
H         64.95744       24.62269       63.65998
H         64.54267       25.20644       62.00521
N         68.60663       26.82100       60.81611
C         69.86715       27.52173       60.59585
C         70.18453       28.35214       61.82994
O         69.47294       29.31274       62.09472
C         69.73842       28.41595       59.32057
C         69.45027       27.53039       58.07831
C         70.99881       29.27648       59.09562
C         69.07262       28.32089       56.82479
H         67.77855       27.39038       61.05140
H         70.69225       26.79502       60.42592
H         68.87416       29.10152       59.47256
H         68.58506       26.86654       58.28327
H         70.33322       26.89138       57.86496
H         71.89259       28.63599       58.94005
H         70.87695       29.94668       58.22171
H         71.17935       29.94228       59.96185
H         68.16308       28.92859       57.02077
H         69.89342       28.98149       56.48487
H         68.84786       27.61079       56.00074
N         71.23447       28.03653       62.64237
C         71.61040       28.86472       63.78811
C         72.28825       30.13750       63.30347
O         72.55746       30.26363       62.11949
C         72.55852       28.10445       64.75577
C         71.88269       26.87163       65.35952
O         73.72237       27.71561       64.08012
H         71.77126       27.18249       62.44420
H         70.69255       29.12799       64.35972
H         72.82687       28.78688       65.59446
H         74.38507       27.44844       64.76938
H         71.62587       26.14742       64.56535
H         72.57386       26.37266       66.07172
H         70.96275       27.16371       65.90781
N         72.60980       31.12833       64.17784
C         73.35464       32.32043       63.77981
C         74.76565       31.92033       63.36317
O         75.23173       32.35882       62.32139
C         73.38568       33.34792       64.93617
C         74.04167       34.66536       64.49638
O         72.06434       33.61889       65.33101
H         72.32538       31.02329       65.16396
H         72.82745       32.81868       62.93401
H         73.95221       32.90970       65.79130
H         72.10499       33.97799       66.25559
H         74.02765       35.39356       65.33449
H         75.09627       34.50670       64.19076
H         73.48184       35.10646       63.64238
N         75.47514       31.03863       64.12772
C         76.83013       30.57324       63.83117
C         76.93711       30.04734       62.40844
O         77.80054       30.50585       61.67336
C         77.22813       29.48204       64.85829
C         78.69836       29.04369       64.75874
C         79.02742       28.00206       65.84162
C         80.51539       27.62404       65.82739
N         80.81828       26.64489       66.87246
H         75.00809       30.65632       64.96495
H         77.53067       31.42996       63.94901
H         76.56584       28.59653       64.74106
H         77.07281       29.89511       65.87961
H         79.34413       29.93671       64.90540
H         78.90596       28.61034       63.75629
H         78.41057       27.09068       65.67800
H         78.78141       28.42168       66.84188
H         81.12730       28.53771       65.99898
H         80.78686       27.19961       64.83570
H         81.84042       26.42492       66.85123
H         80.57870       27.03415       67.81355
H         80.27927       25.76374       66.70857
N         76.07019       29.10372       61.94737
C         76.11368       28.56463       60.58979
C         75.95144       29.68333       59.57591
O         76.83826       29.86950       58.75384
C         75.03461       27.47139       60.38504
C         75.27330       26.27085       61.32125
C         74.27955       25.16970       61.10966
O         72.96069       25.40280       61.23307
O         74.66985       24.04062       60.86564
H         75.34100       28.77697       62.59153
H         77.10374       28.08260       60.42424
H         75.08326       27.11240       59.33273
H         74.01997       27.89422       60.56259
H         75.19665       26.58391       62.37736
H         76.29747       25.87099       61.15591
N         74.86025       30.49430       59.59783
C         74.70196       31.60410       58.68365
H         73.75582       32.14346       58.90356
H         75.54720       32.31608       58.80337
H         74.67103       31.23568       57.63707
H         74.12914       30.33619       60.30040
Ca        72.31202       22.39400       61.14862
O         70.28650       23.97408       63.91518
H         70.26385       24.00368       64.90491
H         69.93860       24.85679       63.63183
O         73.25245       23.48631       64.34808
H         72.93931       22.54848       64.29669
H         72.91448       23.80958       65.22068

Ca 1.0



