%chk=holoCaM.loop2.water0.frame244.chk
%nprocshared=20
%mem=10GB
%nosave
#b3lyp/svp scf=(tight,noincore,xqc) Test 
#IOP(5/87=12) Density=Current Pop=(MK,readradii) iop(6/33=2) iop(6/42=6)

holoCaM.loop2.water0.frame244 

   -2  1 
C         56.78180      101.35761       47.70655
C         55.94745      102.07217       46.68607
O         54.83747      101.63326       46.41875
H         57.75221      101.87273       47.86817
H         56.23503      101.32970       48.67261
H         56.98078      100.32038       47.36730
N         56.41226      103.20150       46.08241
C         55.61899      103.96417       45.12989
C         55.32414      103.11918       43.89544
O         56.26675      102.58284       43.32867
C         56.35122      105.27980       44.74545
C         55.40320      106.27055       44.12909
O         55.77588      107.38791       43.82522
O         54.10839      105.93593       44.06215
H         57.34757      103.55107       46.34240
H         54.67932      104.24334       45.65493
H         57.21559      105.07087       44.07883
H         56.72683      105.76716       45.67118
N         54.05010      102.95309       43.42088
C         53.73051      102.04111       42.32368
C         53.43293      102.73720       41.00438
O         53.37347      102.03041       40.00686
C         52.57119      101.12777       42.73354
H         53.27912      103.47225       43.86220
H         54.61353      101.39772       42.11698
H         52.35136      100.38712       41.93517
H         52.82845      100.57808       43.66352
H         51.65583      101.73161       42.91960
N         53.27134      104.08956       40.89012
C         53.16369      104.76220       39.59127
C         54.27549      105.79657       39.39730
O         54.32671      106.40754       38.33902
C         51.74872      105.34897       39.39173
C         51.39496      106.51591       40.26872
O         50.27313      106.99294       40.21073
O         52.30818      107.07799       41.07640
H         53.24125      104.66443       41.74363
H         53.28775      104.02065       38.77220
H         51.01586      104.52974       39.56173
H         51.63917      105.68623       38.33771
N         55.21608      106.02838       40.36203
C         56.32232      106.95516       40.21408
C         55.88054      108.39369       40.09034
O         56.27203      109.05172       39.13754
H         55.19496      105.50215       41.24529
H         56.94805      106.65603       39.34553
H         56.95884      106.88753       41.12453
N         55.10594      108.96095       41.05691
C         54.76390      110.38054       41.10178
C         55.32794      111.04576       42.36138
O         54.98404      112.18784       42.63292
C         53.23975      110.58091       40.93606
C         52.34580      110.01761       42.01367
N         51.00534      110.16773       41.90588
O         52.80975      109.43051       42.97759
H         54.77034      108.36107       41.82195
H         55.21599      110.92007       40.24081
H         52.94055      110.12463       39.96694
H         53.03833      111.67245       40.86940
H         50.59656      110.66069       41.09763
H         50.37369      109.79191       42.62814
N         56.27105      110.42101       43.12921
C         56.92234      111.02602       44.28037
C         56.08491      111.08032       45.54253
O         56.63138      111.50107       46.55215
H         56.63592      109.50575       42.83495
H         57.30597      112.03414       44.01309
H         57.80139      110.39511       44.53977
N         54.78916      110.65416       45.59530
C         54.01859      110.60097       46.83895
C         53.54792      109.17944       47.10326
O         53.74732      108.31080       46.26473
C         52.82555      111.58861       46.79506
C         53.29506      113.04886       46.70266
O         51.93154      111.27288       45.75493
H         54.33208      110.32735       44.73623
H         54.65690      110.88591       47.70345
H         52.26411      111.51269       47.75086
H         52.33642      111.56830       44.89838
H         52.41819      113.72989       46.72941
H         53.95192      113.29187       47.56577
H         53.85958      113.22935       45.76376
N         52.92212      108.87251       48.27779
C         52.42881      107.53881       48.60151
C         50.91956      107.62239       48.75755
O         50.42789      108.29414       49.65321
C         53.15522      106.97857       49.85665
C         54.66829      106.81827       49.53785
C         52.54117      105.63268       50.29374
C         55.52124      106.39962       50.73521
H         52.78500      109.61690       48.97802
H         52.64856      106.83819       47.76901
H         53.02787      107.70454       50.69027
H         55.07655      107.78840       49.18268
H         54.80225      106.07265       48.72186
H         53.01704      105.25560       51.22027
H         51.46331      105.74957       50.52910
H         52.65272      104.87188       49.49338
H         55.23120      105.40124       51.11793
H         56.58501      106.33924       50.42076
H         55.43372      107.15158       51.54718
N         50.12915      106.99332       47.84618
C         48.67410      107.07970       47.80258
C         48.02818      106.25947       48.91287
O         48.73115      105.65119       49.70326
C         48.18720      106.57431       46.41966
C         48.78021      107.33959       45.25739
O         49.62808      108.37086       45.45113
O         48.48981      107.01632       44.11740
H         50.59784      106.49314       47.08257
H         48.36671      108.14495       47.89519
H         47.08556      106.66776       46.34142
H         48.45723      105.50221       46.31069
N         46.67154      106.19176       49.01727
C         45.96020      105.37620       49.99991
C         46.26396      103.87623       49.85274
O         46.72138      103.30567       50.83202
C         44.44314      105.66457       49.90988
C         43.60865      104.82905       50.85218
C         43.79289      104.90430       52.24387
C         42.62173      103.96935       50.33724
C         43.00333      104.13063       53.10158
C         41.83480      103.20001       51.19782
C         42.02497      103.28020       52.57902
H         46.11135      106.75556       48.35937
H         46.28570      105.69439       51.01630
H         44.09845      105.50729       48.87003
H         44.26950      106.73857       50.13812
H         44.54264      105.56113       52.66561
H         42.45767      103.89469       49.26939
H         43.14771      104.19181       54.17239
H         41.07598      102.54302       50.79253
H         41.41283      102.68438       53.24358
N         46.04486      103.15189       48.70534
C         46.29276      101.71448       48.59768
C         47.76306      101.37106       48.74965
O         48.07043      100.35270       49.35479
C         45.73455      101.35606       47.21249
C         45.92690      102.62946       46.42235
C         45.54896      103.68998       47.45241
H         45.71754      101.12336       49.34496
H         46.14270      100.42833       46.75563
H         44.63254      101.23095       47.31518
H         47.00554      102.72140       46.17948
H         45.36041      102.69283       45.46930
H         46.02233      104.64148       47.14893
H         44.44526      103.78748       47.51987
N         48.72626      102.19090       48.25748
C         50.15630      101.92565       48.36719
C         50.54404      101.82281       49.83257
O         51.14160      100.83126       50.22535
C         50.95538      103.04492       47.66841
C         50.59869      103.16822       46.16609
C         51.27178      104.33533       45.51756
O         52.16744      104.93427       46.09161
O         50.86333      104.76968       44.30857
H         48.42095      103.06824       47.81932
H         50.40589      100.97113       47.85077
H         52.04546      102.84436       47.77155
H         50.72637      104.01173       48.16951
H         49.51757      103.35173       46.04529
H         50.84641      102.23772       45.61157
N         50.17371      102.80063       50.70495
C         50.43690      102.77067       52.12764
H         50.99263      103.68662       52.41706
H         49.46911      102.75684       52.67415
H         51.02608      101.88150       52.43108
H         49.63687      103.59690       50.35039
Ca        52.02153      106.57990       43.68495

Ca 1.0



