%chk=holoCaM.loop4.water3.frame339.chk
%nprocshared=20
%mem=10GB
%nosave
#b3lyp/svp scf=(tight,noincore,xqc) Test 
#IOP(5/87=12) Density=Current Pop=(MK,readradii) iop(6/33=2) iop(6/42=6)

holoCaM.loop4.water3.frame339 

   -3  1 
C         20.42865       24.63253        4.36720
C         21.58394       23.70097        4.16350
O         21.39360       22.67460        3.52838
H         19.61952       24.10522        4.91443
H         20.72755       25.53188        4.94387
H         20.04496       24.95742        3.37673
N         22.81391       23.98378        4.68344
C         23.97039       23.11554        4.48762
C         25.13392       23.59706        5.34592
O         25.54428       24.74051        5.19582
C         24.39171       23.10882        2.99792
C         25.41631       22.05631        2.68714
O         25.89865       21.99815        1.56808
O         25.75916       21.13473        3.60665
H         22.91872       24.83698        5.25445
H         23.68096       22.08902        4.80146
H         24.78864       24.11235        2.73055
H         23.52909       22.90236        2.33361
N         25.70476       22.77432        6.27359
C         26.76923       23.19911        7.18305
C         28.08183       22.44357        6.96625
O         29.06151       22.82649        7.59049
C         26.28234       23.09569        8.66766
C         25.98310       21.62828        9.09143
C         25.05643       24.00625        8.87304
C         25.55585       21.46430       10.55221
H         25.34629       21.81670        6.35240
H         27.01743       24.26560        6.98871
H         27.09569       23.48097        9.32209
H         26.89933       21.01824        8.94401
H         25.17616       21.20187        8.47096
H         25.30087       25.04680        8.57271
H         24.19272       23.65412        8.26973
H         24.75342       24.04125        9.93855
H         24.58503       21.96442       10.74740
H         25.41602       20.38514       10.77539
H         26.33128       21.86954       11.23422
N         28.18455       21.35595        6.14281
C         29.41710       20.57526        6.00458
C         29.76374       20.18386        4.55735
O         30.81311       19.58146        4.37276
C         29.33285       19.34306        6.93393
C         28.03559       18.59615        6.81295
O         27.68036       18.14823        5.74239
O         27.23696       18.45229        7.88764
H         27.33375       20.98534        5.70205
H         30.29100       21.16559        6.35870
H         29.40454       19.69422        7.98612
H         30.19352       18.66387        6.75024
N         28.97633       20.49197        3.48403
C         29.31919       20.17230        2.09724
C         29.38286       18.68711        1.73930
O         29.68121       18.39370        0.59046
H         28.12199       21.03496        3.63196
H         30.29950       20.63882        1.85906
H         28.55839       20.63450        1.43068
N         29.13792       17.69888        2.64439
C         29.26837       16.26531        2.35307
C         28.30841       15.72704        1.27889
O         28.59934       14.66587        0.74451
C         29.08810       15.43167        3.65234
C         27.73814       15.65847        4.28581
O         26.92287       16.57819        3.73860
O         27.39933       15.03535        5.27703
H         28.90646       17.97535        3.60258
H         30.30504       16.10072        1.98399
H         29.86907       15.71287        4.39100
H         29.20576       14.35281        3.41318
N         27.13070       16.34268        0.96076
C         26.20853       15.85781       -0.06122
C         24.83423       15.43753        0.45625
O         23.97393       15.21498       -0.38370
H         26.87395       17.20799        1.44574
H         26.62615       14.99550       -0.62476
H         26.07150       16.68431       -0.79090
N         24.55308       15.24299        1.78314
C         23.24457       14.78788        2.27663
C         22.67678       15.76141        3.35100
O         22.87782       17.08514        2.96633
C         23.40427       13.37850        2.88805
C         23.91277       12.35299        1.86332
C         24.02204       10.98052        2.47654
N         24.87224       10.74374        3.50334
O         23.33875       10.06853        2.03552
H         25.30653       15.35476        2.46802
H         22.51261       14.73722        1.44055
H         22.43021       13.01046        3.26793
H         24.11088       13.43775        3.74502
H         24.91059       12.64804        1.47421
H         23.19896       12.31964        1.01065
H         25.46613       11.49482        3.88350
H         24.94197        9.80220        3.91718
N         21.24620       15.54302        3.61618
C         20.65676       16.44705        4.63308
C         20.58024       15.77007        5.99967
O         20.04081       14.67492        6.08406
C         19.24234       16.88351        4.16418
C         18.64092       17.93148        5.11949
C         19.29255       17.48264        2.74765
H         20.99357       14.54511        3.78668
H         21.24759       17.38369        4.71585
H         18.57338       15.99507        4.13610
H         17.62625       18.22795        4.77985
H         18.54678       17.52965        6.14777
H         19.27890       18.84141        5.14857
H         18.27481       17.78763        2.42384
H         19.95987       18.37107        2.71838
H         19.66332       16.73490        2.01533
N         21.02974       16.40221        7.12488
C         20.93302       15.82001        8.46333
C         19.84613       16.52018        9.27960
O         19.13446       17.35362        8.73862
C         22.32931       15.81658        9.13650
C         22.82382       17.17930        9.56634
N         23.96299       17.70927        9.07454
O         22.20225       17.80272       10.40579
H         21.41382       17.35434        7.04050
H         20.62314       14.75443        8.39566
H         23.04856       15.33877        8.43741
H         22.30053       15.17847       10.04503
H         24.51977       17.21377        8.37349
H         24.29147       18.62883        9.40422
N         19.64287       16.19799       10.58948
C         18.60776       16.80219       11.42943
C         18.82826       18.30023       11.56733
O         17.91160       19.06101       11.30019
C         18.54491       16.17242       12.84554
C         18.12937       14.71345       12.84233
C         16.80199       14.36356       13.15393
C         19.04796       13.68631       12.55385
C         16.40017       13.02391       13.15229
C         18.64404       12.34959       12.55400
C         17.31725       12.01350       12.84914
O         16.91605       10.72644       12.84959
H         20.26390       15.49668       10.99938
H         17.61116       16.62770       10.96269
H         17.76311       16.74518       13.39470
H         19.48769       16.30321       13.41924
H         16.07137       15.12771       13.38907
H         20.08432       13.89773       12.34517
H         15.37366       12.77140       13.38636
H         19.36700       11.57581       12.32809
H         17.52179        9.99983       12.64405
N         20.02380       18.79057       11.99739
C         20.31339       20.21826       12.15268
C         20.28951       21.01564       10.83518
O         20.44409       22.22697       10.91433
C         21.69563       20.42216       12.83318
C         21.84742       19.75616       14.22144
C         20.94745       20.30162       15.30144
O         21.01574       19.77246       16.53767
O         20.17376       21.22141       15.08896
H         20.74255       18.10279       12.25539
H         19.52964       20.65115       12.80765
H         21.90325       21.50854       12.95270
H         22.47812       20.00264       12.16300
H         22.89490       19.90488       14.56063
H         21.68180       18.66322       14.14549
N         20.07719       20.44318        9.60905
C         19.98314       21.20709        8.35954
C         18.56294       21.20684        7.79872
O         18.32266       21.92564        6.83762
C         20.89215       20.59592        7.27365
C         22.38040       20.52451        7.62940
C         23.16773       19.79269        6.56228
O         24.48078       19.56061        6.73293
O         22.62636       19.38171        5.54862
H         19.94895       19.43098        9.54973
H         20.26182       22.26890        8.53681
H         20.78798       21.17625        6.32872
H         20.53072       19.56082        7.09044
H         22.49402       19.97486        8.58321
H         22.78743       21.55004        7.75772
N         17.57708       20.41715        8.30835
C         16.23770       20.39769        7.76603
H         15.77345       21.40060        7.86746
H         16.26550       20.09936        6.69666
H         15.61882       19.66027        8.32199
H         17.77027       19.78412        9.08617
Ca        24.85007       17.35142        4.00196
O         22.92733       19.80846        2.56330
H         22.21710       19.84908        1.87614
H         22.72621       20.55342        3.17848
O         24.98731       15.61622        6.56826
H         25.41101       16.49470        6.39350
H         24.53495       15.37971        5.72128
O         25.28106       19.12161        1.29433
H         26.22725       19.41235        1.29564
H         25.12125       18.79031        0.37607

Ca 1.0



