%chk=holoCaM-CaMKII.loop4.water2.frame248.chk
%nprocshared=20
%mem=10GB
%nosave
#b3lyp/svp scf=(tight,noincore,xqc) Test 
#IOP(5/87=12) Density=Current Pop=(MK,readradii) iop(6/33=2) iop(6/42=6)

holoCaM-CaMKII.loop4.water2.frame248 

   -3  1 
C         90.89409        1.09396       71.35095
C         90.12959        1.96521       72.30536
O         90.67748        2.94815       72.77858
H         91.79630        0.69249       71.85878
H         90.28077        0.23455       71.00456
H         91.20272        1.68701       70.46605
N         88.84870        1.65420       72.64078
C         88.04771        2.41811       73.59211
C         88.71644        2.41588       74.96197
O         89.02790        1.34959       75.47391
C         86.63100        1.80930       73.64438
C         85.73102        2.48320       74.63133
O         85.16299        1.75860       75.60959
O         85.48914        3.67328       74.54289
H         88.42573        0.82118       72.20123
H         87.94267        3.46576       73.22886
H         86.69335        0.73125       73.90610
H         86.16995        1.89803       72.63527
N         88.94461        3.59300       75.61560
C         89.62549        3.69993       76.90289
C         88.60267        4.00562       77.99024
O         88.47523        3.20605       78.90755
C         90.74705        4.79173       76.82276
C         91.82488        4.48759       75.74764
C         91.40569        5.07459       78.18546
C         92.70801        3.26879       76.02817
H         88.59494        4.46195       75.18851
H         90.09462        2.72939       77.17587
H         90.26632        5.74242       76.51209
H         92.49512        5.37096       75.65360
H         91.33074        4.34992       74.76654
H         90.65326        5.43403       78.91752
H         91.88929        4.16746       78.60001
H         92.16771        5.87751       78.07832
H         93.29299        3.40914       76.96057
H         92.10509        2.34243       76.10161
H         93.43433        3.14678       75.19652
N         87.86118        5.15094       77.97794
C         86.94235        5.50866       79.06232
C         85.78996        4.52907       79.24976
O         85.25846        4.48612       80.35066
C         86.42756        6.96219       78.91786
C         85.71544        7.24629       77.61716
O         85.39685        8.39022       77.33897
O         85.50189        6.25781       76.73010
H         88.00970        5.81696       77.20810
H         87.53826        5.47981       80.00304
H         87.31860        7.62699       78.95391
H         85.77090        7.22668       79.77468
N         85.33007        3.73371       78.24075
C         84.28476        2.73654       78.43205
C         82.97908        3.06288       77.73356
O         82.09894        2.21390       77.76627
H         85.74148        3.81783       77.30074
H         84.03979        2.59991       79.50660
H         84.67381        1.76168       78.07263
N         82.73107        4.27393       77.15055
C         81.41587        4.61472       76.60539
C         81.01733        3.78351       75.38863
O         79.84974        3.82270       75.02660
C         81.28730        6.13443       76.33486
C         82.25323        6.71260       75.33402
O         82.21048        8.03181       75.06962
O         83.08561        6.01859       74.77680
H         83.45543        5.00049       77.18565
H         80.67299        4.38726       77.40267
H         81.44871        6.67037       77.29503
H         80.25366        6.35650       75.99201
N         81.91582        3.01983       74.70427
C         81.55243        2.14598       73.59797
C         82.06428        2.64159       72.26482
O         81.95234        1.90056       71.29779
H         82.90961        3.05174       74.96505
H         80.45195        2.02636       73.50302
H         81.97677        1.14138       73.81306
N         82.57972        3.89507       72.11388
C         83.04743        4.43068       70.84339
C         84.49144        4.87176       70.94477
O         85.08466        4.82405       72.01363
C         82.16042        5.62341       70.42165
C         80.74935        5.16903       70.02507
C         79.91148        6.33618       69.57109
N         79.57695        7.32483       70.43221
O         79.52352        6.38587       68.41314
H         82.61641        4.52477       72.92394
H         83.00988        3.65637       70.04523
H         82.59425        6.12442       69.53025
H         82.12557        6.36876       71.24680
H         80.23999        4.66008       70.87009
H         80.84504        4.44473       69.18497
H         79.88097        7.29267       71.41595
H         79.00117        8.11959       70.11676
N         85.12505        5.29717       69.82090
C         86.50779        5.73710       69.76582
C         86.51731        7.16592       69.24875
O         85.98841        7.40841       68.17140
C         87.30362        4.76546       68.85112
C         88.76060        5.21190       68.66271
C         87.28772        3.34221       69.44189
H         84.60220        5.28758       68.93054
H         86.98079        5.71078       70.77252
H         86.82251        4.73508       67.84791
H         89.29055        4.50134       67.99244
H         88.80792        6.21525       68.19127
H         89.29016        5.24262       69.63639
H         86.24905        2.96415       69.54755
H         87.83400        2.63926       68.77810
H         87.76930        3.33006       70.44398
N         87.12219        8.16017       69.96117
C         87.17513        9.55227       69.51999
C         88.56011        9.88591       68.99334
O         89.39613        8.99767       68.91968
C         86.68688       10.52841       70.62673
C         87.71659       10.93801       71.66459
N         88.26217       10.05983       72.53175
O         88.05116       12.11241       71.72541
H         87.60613        7.90039       70.82408
H         86.47323        9.68850       68.66846
H         85.77073       10.12910       71.11006
H         86.38169       11.46688       70.11373
H         87.98892        9.07513       72.53538
H         88.95475       10.37706       73.22611
N         88.86898       11.14957       68.58938
C         90.15603       11.51709       68.00610
C         91.32440       11.16981       68.90925
O         92.30667       10.63596       68.41460
C         90.20137       13.02592       67.69506
C         91.47327       13.37469       66.95707
C         91.70558       12.85059       65.67343
C         92.44258       14.20278       67.54589
C         92.88669       13.14687       64.99132
C         93.62707       14.49558       66.86170
C         93.85195       13.96783       65.58099
O         94.98851       14.24039       64.90951
H         88.14971       11.88207       68.68466
H         90.26788       10.95864       67.05082
H         90.12810       13.58895       68.65268
H         89.33585       13.31814       67.06271
H         90.97186       12.21038       65.19977
H         92.28910       14.61074       68.53727
H         93.05128       12.73435       64.00386
H         94.37022       15.12906       67.32881
H         95.68279       14.80324       65.28003
N         91.30071       11.47228       70.23521
C         92.40143       11.15687       71.13935
C         92.64815        9.65010       71.15206
O         93.76362        9.21844       70.89882
C         92.08304       11.71055       72.54952
C         93.30508       11.71565       73.47748
C         92.96796       12.36677       74.79075
O         93.54004       13.38969       75.13425
O         92.03093       11.82828       75.59418
H         90.46209       11.93906       70.61192
H         93.31030       11.68675       70.77650
H         91.24077       11.14978       73.00963
H         91.76706       12.77193       72.43608
H         94.11930       12.29630       72.98846
H         93.66711       10.68287       73.66110
N         91.61709        8.79432       71.40113
C         91.73102        7.32998       71.42168
C         92.04846        6.72148       70.05718
O         92.29669        5.52462       70.00017
C         90.40589        6.73649       71.94930
C         90.20360        7.15489       73.41239
C         88.83553        6.92068       73.96247
O         88.64284        7.17408       75.13910
O         87.78690        6.54751       73.20502
H         90.69893        9.22029       71.59632
H         92.55171        7.04713       72.11813
H         90.39755        5.62470       71.90102
H         89.59116        7.11211       71.30203
H         90.38510        8.23780       73.55566
H         90.94819        6.60775       74.02335
N         92.04743        7.46156       68.91718
C         92.36228        6.91338       67.61724
H         93.40470        6.53166       67.61029
H         91.65647        6.09512       67.36430
H         92.27365        7.70912       66.84515
H         91.80024        8.44813       68.95996
Ca        85.98820        6.38899       74.53941
O         86.46873        9.42757       74.74748
H         86.04607       10.31729       74.84165
H         87.04371        9.33753       75.54754
O         84.17656        8.36811       72.61754
H         83.18877        8.38850       72.55818
H         84.41275        9.23036       73.04228

Ca 1.0



