%chk=holoCaM-CaMKII.loop3.water1.frame425.chk
%nprocshared=20
%mem=10GB
%nosave
#b3lyp/svp scf=(tight,noincore,xqc) Test 
#IOP(5/87=12) Density=Current Pop=(MK,readradii) iop(6/33=2) iop(6/42=6)

holoCaM-CaMKII.loop3.water1.frame425 

   0  1 
C         72.19518       61.67161       49.99273
C         72.60146       61.43561       51.41422
O         73.78797       61.48547       51.70594
H         71.51511       62.54680       49.94207
H         73.08597       61.87288       49.35891
H         71.67386       60.77366       49.60122
N         71.65631       61.16077       52.35851
C         71.97677       60.91917       53.75746
C         71.59666       59.48439       54.09448
O         70.44392       59.10279       53.94987
C         71.26855       61.95836       54.64382
C         71.83446       62.00492       56.03889
O         71.82460       61.02298       56.75942
O         72.37400       63.14977       56.49461
H         70.66700       61.11157       52.06935
H         73.06873       61.06296       53.91573
H         70.17382       61.77066       54.66267
H         71.43676       62.96532       54.20179
N         72.56370       58.62341       54.49839
C         72.39519       57.18747       54.71374
C         71.35224       56.86195       55.77917
O         70.59839       55.91752       55.59279
C         73.78728       56.60975       55.07021
C         73.90224       55.07991       55.07373
C         75.37790       54.68613       55.28226
C         75.60120       53.17275       55.18757
N         77.01944       52.84818       55.35655
H         73.50922       59.01401       54.60569
H         72.08543       56.72054       53.75191
H         74.13309       57.02308       56.04414
H         74.48057       56.95993       54.27531
H         73.56422       54.69343       54.08712
H         73.26705       54.64082       55.87235
H         75.72189       55.05117       56.27506
H         75.99866       55.17109       54.49556
H         75.26407       52.81272       54.18992
H         75.00631       52.65495       55.97118
H         77.58939       53.31863       54.61545
H         77.35086       53.15628       56.29957
H         77.14981       51.81424       55.27270
N         71.27726       57.58727       56.93005
C         70.39502       57.27171       58.05976
C         69.44312       58.41256       58.42082
O         68.72168       58.27243       59.39981
C         71.24559       56.85797       59.28981
C         72.24671       57.89550       59.72153
O         72.20845       58.38727       60.83644
O         73.21636       58.23383       58.85827
H         71.90204       58.39775       57.00876
H         69.75540       56.39292       57.82287
H         71.81287       55.93800       59.03123
H         70.56991       56.60577       60.13610
N         69.34296       59.54797       57.67274
C         68.41776       60.62670       57.98622
C         68.76404       61.44112       59.22295
O         67.98837       62.33829       59.52448
H         69.87668       59.62718       56.79940
H         67.39386       60.20394       58.09356
H         68.39667       61.33948       57.13365
N         69.87914       61.22668       59.98959
C         70.14813       62.03093       61.18650
C         70.39605       63.50273       60.87050
O         70.29351       64.31616       61.77819
C         71.31824       61.47480       62.02227
C         72.66113       61.66639       61.35459
N         73.63262       62.38888       61.95914
O         72.87428       61.17266       60.25917
H         70.51848       60.45898       59.74695
H         69.23512       61.95355       61.82003
H         71.14439       60.39742       62.22633
H         71.32450       61.99703       63.00439
H         73.48039       62.81883       62.88330
H         74.54486       62.51713       61.49920
N         70.74597       63.91211       59.61640
C         70.88168       65.30656       59.23722
C         72.24282       65.67685       58.68722
O         72.31315       66.74559       58.09500
H         70.87783       63.21432       58.87056
H         70.63265       66.00644       60.06387
H         70.13775       65.48036       58.42982
N         73.37155       64.91654       58.85923
C         74.65818       65.31657       58.27750
C         75.35163       64.18085       57.55043
O         74.93940       63.03472       57.67308
C         75.56070       65.99335       59.33545
C         76.05625       65.12209       60.47230
C         76.97489       64.07941       60.24579
C         75.64804       65.39035       61.79117
C         77.47036       63.32533       61.31353
C         76.14465       64.63314       62.85719
C         77.05888       63.60161       62.62374
O         77.54052       62.89052       63.66324
H         73.32959       64.07071       59.44756
H         74.47330       66.09408       57.50424
H         74.97649       66.84611       59.74610
H         76.45236       66.43305       58.83904
H         77.33316       63.85676       59.25167
H         74.95139       66.19256       61.99941
H         78.18285       62.53359       61.12367
H         75.82496       64.85486       63.86750
H         78.18751       62.18028       63.54515
N         76.42999       64.44989       56.75684
C         77.19125       63.42905       56.04906
C         78.66209       63.49327       56.43186
O         79.26834       64.55281       56.35355
C         77.01320       63.51309       54.49909
C         77.45993       64.86296       53.87568
C         75.55732       63.17552       54.12694
C         77.49680       64.83600       52.34424
H         76.72128       65.43249       56.63960
H         76.82323       62.41963       56.32166
H         77.65444       62.71107       54.06674
H         78.49541       65.09796       54.18372
H         76.79656       65.68508       54.21900
H         74.85789       63.94317       54.51867
H         75.43071       63.09908       53.03026
H         75.27404       62.18722       54.54629
H         77.87451       65.80974       51.96737
H         78.18535       64.03617       51.99404
H         76.49327       64.67352       51.90530
N         79.32223       62.34684       56.75154
C         80.76937       62.25635       56.88362
C         81.33846       61.63449       55.61564
O         80.57598       61.28985       54.72181
C         81.13323       61.43325       58.12791
O         80.62506       62.04068       59.28507
H         78.79403       61.46965       56.76500
H         81.21807       63.26969       56.97530
H         82.23541       61.35838       58.23464
H         80.75208       60.38878       58.03230
H         79.70934       61.68101       59.41781
N         82.68420       61.51889       55.43799
C         83.27045       61.04517       54.18694
C         82.90996       59.60797       53.86060
O         82.86040       59.28329       52.68171
C         84.79248       61.19185       54.20518
H         83.31033       61.84298       56.19101
H         82.89413       61.69662       53.36489
H         85.23479       60.56247       55.00611
H         85.21793       60.88492       53.22506
H         85.06586       62.25357       54.38418
N         82.69539       58.67663       54.83522
C         82.36572       57.28910       54.52044
C         81.03763       57.22224       53.79087
O         81.00086       56.77537       52.65278
C         82.32421       56.43539       55.79522
H         82.78614       58.95938       55.82311
H         83.16805       56.86919       53.87284
H         83.31496       56.46351       56.29634
H         81.56328       56.80663       56.51323
H         82.09078       55.37953       55.54021
N         79.90217       57.67363       54.39271
C         78.59333       57.67690       53.74090
C         78.51754       58.60157       52.52829
O         77.51153       58.55134       51.83361
C         77.48165       58.05733       54.74292
C         77.65369       59.45954       55.35526
C         76.54708       59.73632       56.31953
O         76.79831       59.89040       57.63356
O         75.39477       59.77468       55.92528
H         79.98515       57.99644       55.36500
H         78.38858       56.63894       53.39510
H         77.47189       57.30704       55.56466
H         76.50259       58.00579       54.22294
H         77.66079       60.24434       54.56971
H         78.60624       59.49996       55.90988
N         79.51133       59.48399       52.22348
C         79.46998       60.37854       51.08523
H         80.34789       60.18097       50.43520
H         78.54919       60.25426       50.47818
H         79.51696       61.42846       51.44319
H         80.33697       59.55291       52.82622
Ca        74.92328       59.67866       58.83231
O         75.42961       59.15706       61.67690
H         76.09565       59.87520       61.52525
H         74.65700       59.61913       62.08841

Ca 1.0



