%chk=holoCaM.loop1.water2.frame361.chk
%nprocshared=20
%mem=10GB
%nosave
#b3lyp/svp scf=(tight,noincore,xqc) Test 
#IOP(5/87=12) Density=Current Pop=(MK,readradii) iop(6/33=2) iop(6/42=6)

holoCaM.loop1.water2.frame361 

   0  1 
C        110.90966       17.82976      100.87746
C        111.83875       17.30817      101.93674
O        112.11780       18.02082      102.88753
H        109.93096       18.09142      101.32891
H        111.35335       18.73138      100.40591
H        110.73701       17.07351      100.08128
N        112.36108       16.05842      101.82627
C        113.29194       15.46716      102.78120
C        114.58681       16.27325      102.87547
O        115.22786       16.51376      101.86213
C        113.58216       14.01899      102.34615
C        114.61983       13.36868      103.19772
O        115.64741       12.96240      102.68520
O        114.43769       13.24838      104.52185
H        112.07654       15.49347      101.01052
H        112.80983       15.42093      103.78510
H        113.93719       14.01105      101.29269
H        112.64333       13.42497      102.40593
N        115.04090       16.67595      104.09802
C        116.26615       17.43550      104.33811
C        117.27980       16.63862      105.16803
O        118.30310       17.20207      105.52568
C        115.90934       18.75399      105.06554
C        115.00107       19.64496      104.20829
C        114.63615       20.94854      104.93253
C        113.72253       21.86094      104.09356
N        114.38219       22.34853      102.87945
H        114.48445       16.41497      104.92122
H        116.77071       17.69816      103.38229
H        116.84053       19.32296      105.28137
H        115.41350       18.52887      106.03348
H        114.06449       19.10380      103.97532
H        115.53791       19.86719      103.26357
H        115.55806       21.50623      105.20571
H        114.09551       20.69089      105.86985
H        113.44233       22.73659      104.71991
H        112.78708       21.32144      103.82426
H        113.74913       23.02659      102.39749
H        115.27340       22.83797      103.12509
H        114.57576       21.56480      102.21722
N        117.08968       15.31803      105.47031
C        118.02137       14.51403      106.26439
C        118.68751       13.42093      105.43882
O        119.48937       12.67755      105.99314
C        117.22578       13.78964      107.37038
C        116.48163       14.70186      108.28725
O        115.13177       14.65511      108.38423
O        117.10412       15.47522      108.99793
H        116.25656       14.83923      105.11312
H        118.82354       15.14990      106.70022
H        117.91085       13.16558      107.98725
H        116.49147       13.11918      106.88350
N        118.35625       13.20388      104.13924
C        118.79191       12.04273      103.38699
C        118.33483       10.75348      104.04650
O        119.11113        9.81158      104.09949
H        117.70713       13.84343      103.66326
H        119.89358       12.04601      103.23875
H        118.31490       12.09028      102.38408
N        117.08549       10.65556      104.58997
C        116.53773        9.43234      105.17634
C        115.21489        9.03406      104.51504
O        114.62887        8.04028      104.92246
C        116.40253        9.59327      106.71058
C        115.42634       10.62578      107.20065
O        115.31100       10.84184      108.52410
O        114.73602       11.26552      106.42912
H        116.49842       11.49993      104.60706
H        117.24461        8.58907      105.02407
H        117.40425        9.85518      107.11448
H        116.09968        8.61989      107.15208
N        114.68646        9.75978      103.48683
C        113.43191        9.46757      102.82318
C        112.24904        9.55027      103.75181
O        111.34143        8.75074      103.58631
H        115.19023       10.57378      103.12152
H        113.47073        8.47412      102.32516
H        113.27595       10.23113      102.02937
N        112.14631       10.54628      104.68224
C        110.96794       10.73822      105.53191
C        110.91447       12.15707      106.20815
O        111.77841       13.07619      105.59011
C        110.82143        9.66861      106.66257
C        110.55916        8.22287      106.22448
O        111.92558        9.70372      107.52785
H        112.90818       11.23239      104.71528
H        110.08878       10.68233      104.84908
H        109.92119        9.94732      107.25274
H        112.71532        9.38654      107.01662
H        110.35584        7.59721      107.11898
H        109.67067        8.17607      105.55912
H        111.44442        7.77867      105.72856
N        109.51282       12.62064      106.12331
C        109.12921       14.00357      106.47234
C        108.54275       14.06098      107.88584
O        107.65247       13.28829      108.20615
C        108.07985       14.49038      105.41879
C        108.73837       14.53834      104.00984
C        107.49358       15.87071      105.78740
C        107.77116       14.88320      102.87367
H        108.81929       11.91323      106.46057
H        109.99817       14.69332      106.39736
H        107.23774       13.76260      105.40287
H        109.16823       13.54276      103.77005
H        109.56895       15.27942      104.00831
H        108.28649       16.64276      105.79807
H        106.70426       16.17918      105.07377
H        106.99994       15.84295      106.77947
H        107.35099       15.90297      102.98293
H        108.31730       14.85633      101.90678
H        106.94448       14.14294      102.83462
N        108.94910       15.03842      108.74335
C        108.41617       15.25336      110.08910
C        107.65356       16.57420      110.12394
O        107.45712       17.18306      109.08857
C        109.58985       15.28071      111.11093
C        110.35042       13.95476      111.15670
O        110.45641       16.36566      110.86882
H        109.64383       15.71292      108.40924
H        107.71132       14.44666      110.38356
H        109.19214       15.41090      112.13681
H        111.10877       16.10491      110.17092
H        111.15247       14.01068      111.92312
H        109.66211       13.12612      111.42509
H        110.80422       13.74998      110.16927
N        107.23006       17.09388      111.31382
C        106.68093       18.44328      111.44853
C        107.68037       19.47503      110.94680
O        107.28234       20.38070      110.22454
C        106.33586       18.75860      112.92718
C        105.20038       17.87924      113.45665
O        107.47265       18.59771      113.74079
H        107.37027       16.54132      112.16665
H        105.74129       18.53760      110.85947
H        105.97358       19.81563      112.96503
H        107.51392       19.37452      114.35719
H        104.28883       18.02091      112.83790
H        105.47825       16.80541      113.44657
H        104.96286       18.16915      114.50200
N        108.99992       19.39934      111.28643
C        109.99640       20.38662      110.87421
C        110.18206       20.47983      109.35997
O        110.86779       21.38799      108.91880
C        111.38023       20.06986      111.50620
C        111.39975       19.99830      113.04589
C        110.95813       21.31195      113.69780
C        111.03339       21.22797      115.22494
N        110.58078       22.47998      115.82927
H        109.29343       18.60965      111.88021
H        109.64718       21.38256      111.21779
H        112.11439       20.84315      111.19038
H        111.73686       19.08893      111.11822
H        112.44105       19.76677      113.36195
H        110.75618       19.17122      113.41063
H        109.90698       21.53125      113.41888
H        111.61154       22.13749      113.34034
H        112.08147       21.02265      115.53742
H        110.38843       20.39457      115.58377
H        110.64094       22.40119      116.86961
H        111.18601       23.27153      115.51106
H        109.58709       22.66773      115.56073
N        109.66259       19.54385      108.51522
C        109.90904       19.51872      107.07634
C        108.61060       19.48842      106.27471
O        108.69287       19.44883      105.05264
C        110.74240       18.26149      106.77134
C        112.02365       18.22592      107.62263
C        112.70506       16.91249      107.50653
O        112.03867       15.79968      107.84875
O        113.87255       16.84569      107.17167
H        109.16093       18.74905      108.91108
H        110.49072       20.40967      106.75700
H        111.00147       18.20347      105.69071
H        110.12127       17.37927      107.02021
H        111.77709       18.31927      108.69884
H        112.70004       19.05946      107.33722
N        107.38320       19.49231      106.87289
C        106.12983       19.42642      106.14974
H        105.52293       20.32588      106.38413
H        106.27354       19.37010      105.05104
H        105.56852       18.52474      106.47564
H        107.30388       19.53525      107.89509
Ca       113.41530       13.72185      107.13722
O        112.07390       11.83188      109.34276
H        112.22827       11.45679      110.24515
H        112.91984       11.67137      108.85880
O        113.49875       14.52817      110.68271
H        114.16391       15.14668      111.07603
H        113.73209       13.64051      111.05399

Ca 1.0



