%chk=holoCaM-CaMKII.loop2.water2.frame157.chk
%nprocshared=20
%mem=10GB
%nosave
#b3lyp/svp scf=(tight,noincore,xqc) Test 
#IOP(5/87=12) Density=Current Pop=(MK,readradii) iop(6/33=2) iop(6/42=6)

holoCaM-CaMKII.loop2.water2.frame157 

   -2  1 
C        109.11901      105.62655       24.12038
C        109.38515      107.07767       24.40859
O        108.47360      107.88879       24.34346
H        108.05652      105.45601       23.84812
H        109.77095      105.27267       23.29484
H        109.34577      105.03018       25.03193
N        110.63407      107.45985       24.78207
C        110.97896      108.80487       25.23044
C        110.84761      109.85200       24.12350
O        111.42808      109.67118       23.06224
C        112.42767      108.79767       25.76095
C        112.76351      110.01336       26.57080
O        113.90306      110.16783       26.97669
O        111.80655      110.88808       26.93189
H        111.35833      106.72481       24.82562
H        110.30995      109.04974       26.08357
H        113.12976      108.69620       24.90517
H        112.57977      107.93125       26.43999
N        110.13855      111.00025       24.33677
C        109.97475      112.07207       23.35568
C        110.55586      113.41973       23.81893
O        110.47575      114.36572       23.04707
C        108.47640      112.22592       23.06076
H        109.68904      111.12232       25.24831
H        110.48568      111.80618       22.40528
H        107.92413      112.50518       23.98497
H        108.29961      113.00739       22.29132
H        108.06334      111.26645       22.68175
N        111.13048      113.60069       25.04857
C        111.58205      114.90876       25.54937
C        112.80810      114.85227       26.47714
O        113.21981      115.91077       26.93291
C        110.40934      115.63028       26.25378
C        109.84542      114.87365       27.41632
O        110.36508      113.69257       27.77840
O        108.87392      115.30976       28.01240
H        111.11053      112.81363       25.69797
H        111.87119      115.55375       24.69091
H        109.58915      115.77224       25.51795
H        110.73209      116.63480       26.60375
N        113.46320      113.69509       26.79064
C        114.65874      113.65881       27.62677
C        114.45472      113.97687       29.10471
O        115.45652      114.03787       29.80374
H        113.17263      112.81307       26.35935
H        115.40222      114.36617       27.19954
H        115.10366      112.64137       27.57947
N        113.22762      114.18461       29.66902
C        113.04618      114.54291       31.08257
C        113.35441      113.40747       32.08534
O        113.17143      113.62716       33.27474
C        111.62977      115.13090       31.31379
C        110.50078      114.14852       31.22117
N        109.22865      114.55824       31.42029
O        110.72585      112.97665       30.98440
H        112.39913      114.15484       29.06401
H        113.72765      115.39370       31.30233
H        111.45498      115.94616       30.57721
H        111.58940      115.57705       32.33040
H        109.01503      115.54607       31.61915
H        108.45593      113.88183       31.38355
N        113.85079      112.19410       31.69827
C        114.24447      111.13583       32.62391
C        113.12085      110.25241       33.14891
O        113.44220      109.32236       33.87604
H        114.08701      112.04316       30.71404
H        114.83160      111.56943       33.46334
H        114.92509      110.44701       32.07798
N        111.80565      110.44750       32.84137
C        110.72111      109.58374       33.32413
C        109.85070      109.07763       32.17892
O        110.04743      109.49263       31.04594
C        109.85021      110.34765       34.35537
C        110.67149      110.80206       35.56822
O        109.17384      111.43325       33.76755
H        111.55899      111.25223       32.26351
H        111.14232      108.69079       33.83490
H        109.07747      109.65514       34.74961
H        109.84712      112.10679       33.49332
H        111.15664      109.92342       36.04564
H        111.45842      111.52554       35.26768
H        110.00811      111.28750       36.31375
N        108.81748      108.21632       32.41967
C        107.87285      107.79229       31.39114
C        106.61041      108.60137       31.60277
O        106.07585      108.59109       32.70499
C        107.53704      106.27000       31.46178
C        108.79377      105.37887       31.61270
C        106.72749      105.87426       30.20276
C        108.44441      103.90137       31.84083
H        108.63079      107.92282       33.39054
H        108.29293      108.00179       30.38084
H        106.91535      106.09949       32.36903
H        109.35664      105.70636       32.51229
H        109.45887      105.47826       30.72833
H        107.35358      105.99339       29.29012
H        106.37087      104.82720       30.24964
H        105.82601      106.50851       30.08626
H        107.94824      103.45292       30.95700
H        109.37021      103.32118       32.03350
H        107.77609      103.79546       32.72356
N        106.07290      109.32881       30.59145
C        104.90153      110.18078       30.76016
C        103.66801      109.43963       30.33904
O        103.76675      108.29463       29.92536
C        105.04554      111.44857       29.90180
C        106.27736      112.20974       30.24014
O        106.23313      113.41480       30.42882
O        107.45185      111.56301       30.20221
H        106.49462      109.25356       29.65447
H        104.78065      110.47265       31.82705
H        104.16467      112.11766       29.99297
H        105.13373      111.14141       28.83587
N        102.45004      110.02003       30.45448
C        101.22442      109.36681       30.04017
C        101.14051      109.26315       28.50739
O        100.98303      108.14640       28.04382
C        100.01555      110.07361       30.67366
C         98.72052      109.43944       30.26393
C         97.90627      110.08267       29.32051
C         98.31569      108.21078       30.81009
C         96.69943      109.50632       28.92660
C         97.09707      107.64429       30.42483
C         96.29078      108.29118       29.48258
H        102.39343      110.95625       30.88842
H        101.20986      108.33651       30.46833
H         99.99635      111.13995       30.41847
H        100.10024      110.05576       31.78277
H         98.21587      111.02326       28.88054
H         98.93310      107.70348       31.54221
H         96.08273      110.00540       28.19155
H         96.77705      106.70524       30.85691
H         95.34974      107.85178       29.18180
N        101.23341      110.33945       27.64626
C        101.17258      110.21751       26.18598
C        102.13980      109.18186       25.65193
O        101.76385      108.36669       24.81956
C        101.57642      111.61412       25.68331
C        101.04599      112.49856       26.77984
C        101.46245      111.72100       28.02211
H        100.12726      109.98828       25.88243
H        102.68423      111.73382       25.70507
H        101.21861      111.85591       24.65891
H        101.39365      113.55320       26.75562
H         99.93241      112.48776       26.71639
H        102.54128      111.85524       28.25167
H        100.84133      112.10224       28.84023
N        103.40501      109.13994       26.14546
C        104.41918      108.16619       25.75774
C        103.91564      106.76017       26.03960
O        103.88892      105.93858       25.13534
C        105.73558      108.45452       26.52039
C        106.28060      109.85273       26.15441
C        107.50558      110.24791       26.91467
O        107.93965      111.37728       26.77322
O        108.11379      109.40440       27.76872
H        103.63562      109.82434       26.88168
H        104.63621      108.25940       24.67004
H        106.49844      107.68762       26.26396
H        105.54593      108.40261       27.61520
H        105.52863      110.63242       26.37953
H        106.50294      109.89790       25.06677
N        103.44967      106.43662       27.27362
C        102.89772      105.14295       27.60487
H        102.02538      104.92524       26.95294
H        103.66934      104.35569       27.48547
H        102.54969      105.14615       28.66165
H        103.45260      107.15352       27.99830
Ca       109.08490      112.43439       29.03791
O        112.27733      110.38956       29.71262
H        112.41432      109.50994       30.14333
H        113.16404      110.60667       29.33803
O        110.61158      107.95564       28.77120
H        111.45805      107.44611       28.72021
H        110.06854      107.61676       28.01751

Ca 1.0



