%chk=holoCaM-CaMKII.loop4.water2.frame6.chk
%nprocshared=20
%mem=10GB
%nosave
#b3lyp/svp scf=(tight,noincore,xqc) Test 
#IOP(5/87=12) Density=Current Pop=(MK,readradii) iop(6/33=2) iop(6/42=6)

holoCaM-CaMKII.loop4.water2.frame6 

   -3  1 
C         73.11528       60.58499       39.56139
C         72.99016       59.75678       40.80735
O         71.98675       59.86227       41.49422
H         74.07760       60.39057       39.04010
H         72.28465       60.34824       38.86602
H         73.08053       61.66156       39.82986
N         73.99131       58.91042       41.16372
C         73.98592       58.09803       42.37440
C         73.89298       58.97086       43.63017
O         74.67781       59.89196       43.80168
C         75.24921       57.21589       42.38345
C         75.48310       56.56484       43.70717
O         76.51160       56.83303       44.30758
O         74.55794       55.80977       44.32876
H         74.81079       58.84971       40.53870
H         73.11708       57.40123       42.35432
H         76.13985       57.84775       42.16898
H         75.17451       56.44880       41.58284
N         72.96302       58.65945       44.57782
C         72.73725       59.36729       45.83828
C         73.22696       58.50718       47.01356
O         73.90338       59.03750       47.88324
C         71.22009       59.74925       45.94852
C         70.84115       60.72165       44.79595
C         70.88484       60.35987       47.32219
C         69.36555       61.13163       44.74793
H         72.37633       57.83644       44.39706
H         73.32009       60.31504       45.87457
H         70.60714       58.83160       45.85405
H         71.06476       60.23030       43.82893
H         71.45679       61.64441       44.86792
H         71.11972       59.64246       48.13570
H         71.45022       61.29974       47.48742
H         69.79808       60.56545       47.40982
H         68.71195       60.24360       44.65758
H         69.07127       61.71269       45.64439
H         69.19491       61.78072       43.86234
N         72.96370       57.17095       47.08046
C         73.38752       56.27923       48.16473
C         74.89176       56.30830       48.41225
O         75.30279       56.44283       49.55606
C         73.05325       54.80871       47.80835
C         71.60202       54.52650       47.54001
O         70.78365       54.59173       48.44323
O         71.20949       54.17352       46.29490
H         72.44355       56.75212       46.30480
H         72.85584       56.55507       49.10278
H         73.39168       54.12990       48.62282
H         73.62826       54.53761       46.90109
N         75.75966       56.10925       47.38109
C         77.19001       55.88203       47.52912
C         77.65267       54.57722       46.87178
O         78.78947       54.19819       47.11281
H         75.36659       56.10900       46.44434
H         77.45340       55.83719       48.60780
H         77.75797       56.72279       47.07755
N         76.86252       53.85456       46.01394
C         77.24113       52.57541       45.40915
C         77.46324       52.66389       43.89326
O         77.67229       51.63054       43.27250
C         76.18416       51.51088       45.78592
C         74.78393       51.84052       45.33827
O         74.52014       51.95509       44.15446
O         73.80377       51.98203       46.25011
H         75.93422       54.20595       45.75965
H         78.20787       52.21551       45.82397
H         76.17988       51.41005       46.89279
H         76.47369       50.52678       45.35917
N         77.54000       53.86157       43.24742
C         77.91025       54.00930       41.84588
C         76.85243       53.62345       40.82931
O         77.14439       53.77265       39.65055
H         77.46405       54.72095       43.79689
H         78.84807       53.44380       41.65328
H         78.12965       55.08400       41.65910
N         75.61240       53.16406       41.17012
C         74.57080       52.88407       40.18031
C         73.35854       53.77589       40.39455
O         73.29254       54.51089       41.37081
C         74.18111       51.39191       40.19001
C         75.29987       50.51671       39.60319
C         74.88705       49.06886       39.53075
N         74.65014       48.35774       40.65668
O         74.77444       48.52832       38.44008
H         75.37864       53.03867       42.16125
H         74.92919       53.13413       39.15704
H         73.28836       51.23915       39.54543
H         73.92000       51.07839       41.22226
H         76.23190       50.60575       40.19981
H         75.51078       50.87530       38.57010
H         74.75577       48.79050       41.58525
H         74.37277       47.36640       40.59878
N         72.39899       53.81969       39.42622
C         71.28398       54.75914       39.40275
C         69.98044       54.00481       39.19020
O         69.89062       53.26888       38.21558
C         71.51500       55.75750       38.22690
C         70.35759       56.76046       38.08275
C         72.82967       56.53529       38.41232
H         72.52195       53.22081       38.59409
H         71.23136       55.35219       40.34305
H         71.59021       55.18499       37.27448
H         70.55123       57.44371       37.22795
H         69.40350       56.23527       37.87160
H         70.24140       57.36533       39.00692
H         72.80019       57.12957       39.34914
H         73.69970       55.84718       38.45369
H         72.99400       57.22416       37.55625
N         68.89934       54.20755       40.00470
C         67.58050       53.63719       39.71874
C         66.61459       54.74369       39.30964
O         67.01699       55.89663       39.25277
C         67.04180       52.74419       40.86854
C         66.44963       53.45570       42.06324
N         67.20964       54.17408       42.91068
O         65.25309       53.34347       42.28781
H         68.99218       54.86555       40.78991
H         67.65836       52.95605       38.84428
H         67.82495       52.02656       41.19556
H         66.22065       52.13182       40.43689
H         68.22101       54.25478       42.76816
H         66.77967       54.62371       43.73305
N         65.32435       54.45708       38.98093
C         64.36292       55.45061       38.50333
C         64.18233       56.60756       39.46819
O         64.20702       57.74510       39.02053
C         63.00309       54.78020       38.22230
C         61.96849       55.77848       37.75077
C         62.18771       56.55383       36.59777
C         60.77892       55.95361       38.47709
C         61.23806       57.49312       36.18728
C         59.82723       56.88754       38.05959
C         60.05555       57.66308       36.91396
O         59.14873       58.57218       36.50377
H         65.01409       53.47648       39.05133
H         64.73862       55.86610       37.54248
H         62.65111       54.27579       39.14978
H         63.13853       54.00148       37.44113
H         63.09652       56.44229       36.02077
H         60.58718       55.36942       39.36864
H         61.42359       58.09101       35.30382
H         58.91524       57.00953       38.62986
H         58.31771       58.71884       36.97760
N         63.98679       56.39956       40.79631
C         63.83651       57.49468       41.75140
C         65.03726       58.42883       41.68976
O         64.84402       59.62547       41.52286
C         63.64989       56.94878       43.18545
C         62.31802       56.18981       43.33426
C         62.13884       55.66328       44.72838
O         61.09734       56.07445       45.47705
O         62.92273       54.84506       45.18260
H         63.98036       55.42705       41.13645
H         62.92810       58.08907       41.50199
H         63.63153       57.80305       43.89921
H         64.50634       56.29036       43.45255
H         62.26628       55.33289       42.63168
H         61.48097       56.88354       43.09828
N         66.30773       57.95005       41.80583
C         67.48645       58.82343       41.81204
C         67.70990       59.53077       40.47851
O         68.50596       60.45898       40.43659
C         68.76632       58.03320       42.15969
C         68.64295       57.29820       43.50163
C         69.84637       56.47048       43.80508
O         70.40901       56.55897       45.01662
O         70.26861       55.65630       42.99999
H         66.41854       56.93306       41.91774
H         67.32451       59.59182       42.60062
H         69.63557       58.72487       42.20414
H         68.95129       57.29031       41.35166
H         67.79266       56.60857       43.47971
H         68.45826       58.00972       44.33050
N         67.08644       59.12365       39.33943
C         67.28900       59.76356       38.05917
H         66.94785       60.81877       38.10465
H         68.36229       59.72368       37.77757
H         66.69978       59.23403       37.27862
H         66.46599       58.31242       39.36533
Ca        72.59676       54.72910       44.57292
O         71.66571       51.27659       43.28259
H         71.28798       50.78230       44.05264
H         72.20892       50.60207       42.80424
O         69.36055       52.78505       44.61234
H         68.87053       53.44160       45.16868
H         69.10410       51.90443       44.98343

Ca 1.0



