%chk=holoCaM.loop4.water3.frame444.chk
%nprocshared=20
%mem=10GB
%nosave
#b3lyp/svp scf=(tight,noincore,xqc) Test 
#IOP(5/87=12) Density=Current Pop=(MK,readradii) iop(6/33=2) iop(6/42=6)

holoCaM.loop4.water3.frame444 

   -3  1 
C         36.11880       74.70444       41.60418
C         36.26190       73.30743       42.10787
O         35.32386       72.82379       42.72559
H         35.92429       75.38420       42.45820
H         37.02982       75.03252       41.06547
H         35.25590       74.74145       40.90394
N         37.38108       72.57124       41.83556
C         37.45949       71.16154       42.17000
C         38.84319       70.77459       42.69268
O         39.81741       71.02848       41.99783
C         37.07792       70.34718       40.90506
C         36.62832       68.97341       41.27526
O         36.29754       68.16076       40.42917
O         36.45721       68.72820       42.57764
H         38.11957       72.98033       41.24438
H         36.70752       70.96117       42.96352
H         37.91583       70.33518       40.17679
H         36.19198       70.81041       40.41856
N         39.00191       70.14051       43.89807
C         40.31111       69.81238       44.47973
C         40.56124       68.30264       44.57097
O         41.69461       67.92469       44.83650
C         40.47308       70.50438       45.87820
C         39.64473       69.77901       46.98041
C         40.10800       71.99801       45.76337
C         39.63297       70.46367       48.34844
H         38.16038       69.90768       44.43352
H         41.10300       70.21511       43.81035
H         41.54111       70.44320       46.18588
H         40.06268       68.75820       47.12228
H         38.59856       69.67115       46.66701
H         39.03379       72.12485       45.51357
H         40.30833       72.53609       46.71169
H         40.71651       72.48243       44.97204
H         40.66434       70.61673       48.72645
H         39.10072       71.43656       48.29472
H         39.07533       69.82796       49.06997
N         39.55093       67.38976       44.42587
C         39.73473       65.93978       44.53246
C         39.10110       65.16826       43.36482
O         39.24620       63.95330       43.34303
C         39.20558       65.42307       45.90134
C         37.73911       65.62276       46.16682
O         36.95936       66.22853       45.27588
O         37.24347       65.22669       47.20697
H         38.59612       67.73955       44.29838
H         40.82187       65.69913       44.52490
H         39.76619       65.93130       46.71462
H         39.40866       64.33262       45.97382
N         38.39085       65.77751       42.36323
C         37.79752       65.04944       41.24439
C         36.67303       64.08035       41.61053
O         36.23662       63.36469       40.72057
H         38.30015       66.80055       42.34589
H         38.60844       64.47943       40.73904
H         37.39442       65.77173       40.50370
N         36.17909       63.95894       42.87834
C         35.26451       62.88673       43.28425
C         33.86931       62.88779       42.64811
O         33.20579       61.86546       42.75374
C         35.12534       62.81753       44.82990
C         34.53801       64.03501       45.49399
O         34.33968       65.05906       44.87117
O         34.25902       64.00466       46.80980
H         36.55447       64.57238       43.60557
H         35.75114       61.93760       42.97078
H         36.12195       62.64801       45.28894
H         34.47858       61.95127       45.07990
N         33.31935       63.98415       42.05841
C         31.95873       64.01252       41.51670
C         30.99395       64.81123       42.38638
O         29.86115       65.01115       41.97306
H         33.86101       64.85294       42.04997
H         31.53126       62.99070       41.41799
H         32.00206       64.44846       40.49557
N         31.35826       65.24584       43.62514
C         30.51714       65.99002       44.55606
C         31.19059       67.30171       44.93530
O         32.29403       67.56730       44.47671
C         30.29871       65.13528       45.82680
C         29.44391       63.89367       45.53589
C         29.18679       63.09127       46.78760
N         29.51665       61.78006       46.85160
O         28.65348       63.62604       47.74886
H         32.28711       65.00722       43.96053
H         29.53218       66.23372       44.10162
H         29.76330       65.73395       46.59308
H         31.28371       64.83674       46.25399
H         29.94038       63.26049       44.76959
H         28.46312       64.22660       45.13444
H         29.94825       61.30147       46.04791
H         29.32307       61.23452       47.70485
N         30.56761       68.17718       45.78166
C         31.16122       69.43628       46.21636
C         31.33729       69.42652       47.73075
O         30.35496       69.40523       48.45899
C         30.31115       70.63227       45.70261
C         30.76284       71.97820       46.29306
C         30.39919       70.71254       44.16742
H         29.62731       67.94651       46.13589
H         32.16050       69.54707       45.77343
H         29.25037       70.47820       45.99976
H         30.13129       72.80094       45.89448
H         30.64055       71.98231       47.39527
H         31.82183       72.18762       46.04101
H         31.45074       70.89376       43.85173
H         30.04866       69.77179       43.69511
H         29.77479       71.54645       43.78319
N         32.59652       69.43236       48.26263
C         32.89735       69.46869       49.69373
C         32.56655       70.84498       50.26161
O         32.23991       71.73745       49.49591
C         34.40588       69.14331       49.87860
C         34.88629       69.05528       51.30415
N         34.37861       68.13338       52.15414
O         35.76371       69.81297       51.68978
H         33.38935       69.39387       47.61099
H         32.29498       68.68235       50.19872
H         35.00260       69.91312       49.34097
H         34.61684       68.16026       49.40632
H         33.64907       67.47521       51.84582
H         34.72187       68.07540       53.12453
N         32.61987       71.09444       51.60102
C         32.35309       72.41501       52.16301
C         33.40777       73.43170       51.72520
O         33.04226       74.49043       51.23580
C         32.19845       72.38787       53.70234
C         33.45524       72.14732       54.50472
C         33.93258       70.85045       54.76067
C         34.14351       73.24787       55.04314
C         35.08329       70.66385       55.53562
C         35.29203       73.05960       55.81102
C         35.76782       71.76621       56.06010
O         36.87819       71.57400       56.79967
H         32.81703       70.31379       52.23720
H         31.35443       72.74689       51.79740
H         31.40744       71.67010       54.01254
H         31.80660       73.39060       53.98286
H         33.41130       69.98242       54.38191
H         33.79380       74.25656       54.86047
H         35.44078       69.66115       55.73319
H         35.81127       73.92136       56.20968
H         37.38038       72.31389       57.17092
N         34.73959       73.15015       51.84364
C         35.82104       74.04909       51.42340
C         35.64780       74.47269       49.97454
O         35.79990       75.64937       49.67747
C         37.20417       73.36084       51.58600
C         37.60247       73.02316       53.03745
C         37.94036       74.23695       53.86538
O         37.10603       75.09742       54.09176
O         39.17698       74.36538       54.38480
H         34.99205       72.22341       52.21343
H         35.80690       74.97111       52.03876
H         38.00690       74.00402       51.15999
H         37.18769       72.41536       51.00004
H         38.51314       72.38688       53.00034
H         36.81086       72.42985       53.53219
N         35.29387       73.56588       49.02606
C         35.07233       73.90803       47.62267
C         33.96960       74.94487       47.47118
O         34.20332       75.96110       46.83125
C         34.71857       72.64384       46.82016
C         35.90956       71.66962       46.75406
C         35.55778       70.40439       46.03083
O         36.36118       69.49485       45.95765
O         34.35124       70.24594       45.47559
H         35.14578       72.59147       49.33049
H         36.00544       74.32709       47.18359
H         34.44436       72.92752       45.77919
H         33.84389       72.14465       47.29268
H         36.23883       71.39654       47.77624
H         36.75810       72.16050       46.23161
N         32.74633       74.76521       48.03827
C         31.67415       75.72591       47.88987
H         30.79148       75.40397       48.48316
H         31.99786       76.72517       48.25204
H         31.37709       75.79545       46.82203
H         32.57194       73.93080       48.60834
Ca        35.60511       67.20617       43.86311
O         34.43232       67.30561       46.76131
H         33.84631       66.61016       47.15021
H         35.30244       67.18470       47.21622
O         33.76660       67.25936       41.74912
H         32.86197       67.32869       41.35851
H         34.30864       66.80760       41.05609
O         33.81234       69.78997       42.78841
H         33.40595       69.93366       41.89912
H         34.04438       70.69811       43.09690

Ca 1.0



