%chk=holoCaM-CaMKII.loop2.water1.frame160.chk
%nprocshared=20
%mem=10GB
%nosave
#b3lyp/svp scf=(tight,noincore,xqc) Test 
#IOP(5/87=12) Density=Current Pop=(MK,readradii) iop(6/33=2) iop(6/42=6)

holoCaM-CaMKII.loop2.water1.frame160 

   -2  1 
C         92.56130      101.98081       10.69292
C         91.79354      103.15067       10.15277
O         90.66649      103.37107       10.57146
H         93.49182      102.34734       11.17791
H         91.96159      101.43724       11.45397
H         92.82846      101.28313        9.87314
N         92.36324      103.97102        9.22933
C         91.73970      105.21629        8.79885
C         90.85567      105.03831        7.57422
O         91.14578      104.22021        6.71198
C         92.81589      106.27818        8.55928
C         92.23070      107.57889        8.08514
O         92.57979      107.98377        6.98805
O         91.33291      108.31681        8.79869
H         93.33043      103.76642        8.92819
H         91.12408      105.62227        9.62661
H         93.52206      105.89843        7.78208
H         93.39757      106.44902        9.48881
N         89.76905      105.85287        7.43286
C         88.86897      105.85876        6.29385
C         88.38332      107.28832        6.02498
O         87.18597      107.50714        5.90705
C         87.69542      104.92019        6.60654
H         89.58995      106.54330        8.16654
H         89.40672      105.49506        5.39064
H         88.06754      103.89530        6.81500
H         87.15638      105.28350        7.51090
H         86.98288      104.87587        5.75678
N         89.27850      108.31649        5.93691
C         88.91689      109.72012        5.70636
C         90.17392      110.57925        5.50815
O         90.24966      111.25364        4.49120
C         87.90425      110.28769        6.74821
C         88.24255      110.12339        8.19775
O         89.20371      110.68590        8.67346
O         87.42793      109.41692        9.00516
H         90.27401      108.08087        6.03944
H         88.36847      109.78336        4.74135
H         86.92835      109.78310        6.60133
H         87.72544      111.36437        6.53660
N         91.21966      110.56261        6.38496
C         92.48215      111.26941        6.16673
C         92.77012      112.30976        7.22960
O         93.77068      113.00314        7.11453
H         91.13806      109.99372        7.22799
H         92.48162      111.78403        5.18418
H         93.31576      110.53232        6.15559
N         91.92057      112.50384        8.27327
C         92.06540      113.55256        9.26940
C         93.18257      113.29468       10.29063
O         93.36042      114.13148       11.16504
C         90.69911      113.79242        9.95891
C         90.18361      112.65724       10.79847
N         89.03880      112.81226       11.49122
O         90.78729      111.60093       10.86853
H         91.07821      111.93570        8.31871
H         92.27993      114.50228        8.73266
H         89.93382      114.00842        9.17867
H         90.78310      114.68520       10.61100
H         88.49543      113.68485       11.43850
H         88.71501      112.06061       12.10389
N         93.98890      112.18962       10.24073
C         95.09223      111.95484       11.16896
C         94.67933      111.46609       12.55092
O         95.55980      111.27162       13.37641
H         93.87815      111.51502        9.47370
H         95.70253      112.88133       11.24852
H         95.74531      111.16167       10.74758
N         93.37692      111.24362       12.87822
C         92.90588      110.80167       14.18862
C         91.99844      109.58022       14.07325
O         91.36138      109.39691       13.04899
C         92.13065      111.97084       14.84789
C         93.10098      113.08235       15.25346
O         91.17958      112.52094       13.96861
H         92.66568      111.43740       12.17501
H         93.75536      110.52399       14.85196
H         91.62388      111.62945       15.77788
H         90.57653      111.79167       13.67774
H         93.82233      112.69813       16.00623
H         93.66541      113.46258       14.37554
H         92.54017      113.92795       15.70290
N         91.86632      108.71384       15.11974
C         90.93905      107.58148       15.10858
C         89.54642      108.09026       15.44311
O         89.35976      108.67120       16.50330
C         91.40660      106.46849       16.09584
C         92.78831      105.92441       15.63767
C         90.36503      105.32876       16.17238
C         93.41904      104.92934       16.61266
H         92.42945      108.87979       15.96814
H         90.93664      107.11082       14.09908
H         91.50829      106.91038       17.11178
H         93.50355      106.76848       15.54426
H         92.69577      105.44525       14.63723
H         90.67544      104.53915       16.88435
H         89.39451      105.71049       16.55030
H         90.20267      104.87160       15.17285
H         92.81609      104.00461       16.70562
H         94.42258      104.63619       16.23770
H         93.53819      105.39885       17.61179
N         88.51433      107.88245       14.57958
C         87.15659      108.36896       14.80748
C         86.33350      107.30326       15.51796
O         86.83879      106.21450       15.73244
C         86.51185      108.73565       13.45008
C         87.32184      109.73393       12.66511
O         86.79889      110.78278       12.32233
O         88.63770      109.49205       12.41451
H         88.69813      107.35415       13.71651
H         87.18658      109.27595       15.45073
H         85.49337      109.14738       13.61774
H         86.42205      107.82140       12.82574
N         85.06153      107.55804       15.94430
C         84.22059      106.55974       16.60707
C         83.84155      105.41056       15.67417
O         84.00457      104.27682       16.10261
C         82.96657      107.20630       17.23437
C         82.17766      106.25110       18.11706
C         80.82538      105.97943       17.84253
C         82.77501      105.64554       19.24300
C         80.08875      105.12706       18.67454
C         82.03538      104.79051       20.06795
C         80.69273      104.53377       19.78564
H         84.68824      108.51132       15.81929
H         84.80236      106.15098       17.46261
H         82.32380      107.62988       16.43633
H         83.29488      108.04685       17.88288
H         80.33619      106.43332       16.99086
H         83.81037      105.83564       19.49293
H         79.04616      104.92931       18.46136
H         82.50122      104.33109       20.93131
H         80.11981      103.87800       20.43001
N         83.35000      105.57257       14.39809
C         83.03581      104.44297       13.53163
C         84.27959      103.64947       13.14689
O         84.13497      102.52752       12.68321
C         82.32039      105.08476       12.33556
C         82.97596      106.44756       12.25849
C         83.09556      106.83450       13.73101
H         82.33423      103.74750       14.04204
H         82.32293      104.49358       11.39415
H         81.26356      105.27345       12.62901
H         84.00199      106.29874       11.85102
H         82.45477      107.20320       11.63103
H         83.92186      107.55596       13.79957
H         82.15761      107.26971       14.13467
N         85.53029      104.15022       13.33943
C         86.75185      103.38319       13.12426
C         87.05490      102.53898       14.34883
O         87.50970      101.41515       14.19372
C         87.90857      104.33346       12.77680
C         87.57024      105.06374       11.46703
C         88.58899      106.06503       11.05970
O         88.35209      106.76410       10.09273
O         89.73792      106.22742       11.74461
H         85.63238      105.12078       13.66874
H         86.64205      102.71007       12.24403
H         88.85273      103.76063       12.64615
H         88.05537      105.06627       13.59901
H         86.61449      105.61515       11.58198
H         87.45496      104.32764       10.64053
N         86.76135      102.99820       15.59830
C         86.92566      102.23207       16.81405
H         85.92921      102.09511       17.28839
H         87.36698      101.23261       16.62792
H         87.57537      102.79291       17.51764
H         86.35915      103.93140       15.70500
Ca        90.00902      108.85221       10.63750
O         93.06383      109.27063       10.63433
H         93.10932      108.46697       11.20904
H         93.74757      109.11880        9.93544

Ca 1.0



