%chk=holoCaM-CaMKII.loop3.water2.frame473.chk
%nprocshared=20
%mem=10GB
%nosave
#b3lyp/svp scf=(tight,noincore,xqc) Test 
#IOP(5/87=12) Density=Current Pop=(MK,readradii) iop(6/33=2) iop(6/42=6)

holoCaM-CaMKII.loop3.water2.frame473 

   0  1 
C         72.45901       52.12481       62.85309
C         72.50001       52.12792       61.35548
O         73.55547       52.37492       60.79303
H         71.72620       52.87697       63.21121
H         72.15816       51.11758       63.20989
H         73.45848       52.36731       63.27458
N         71.36639       51.87688       60.64261
C         71.31872       51.82060       59.18718
C         70.52403       53.01886       58.69571
O         69.37533       53.18464       59.08292
C         70.67413       50.48244       58.75653
C         70.75427       50.13138       57.26122
O         71.98499       49.58984       56.91424
O         70.57502       51.24192       56.44208
H         70.48610       51.72950       61.16096
H         72.34626       51.86177       58.76829
H         69.60640       50.50489       59.05840
H         71.14600       49.63843       59.30493
N         71.10584       53.91881       57.85905
C         70.46825       55.15110       57.40289
C         69.17393       54.87722       56.64220
O         68.15466       55.44672       57.00539
C         71.49583       55.96457       56.58374
C         71.03466       57.38643       56.24077
C         72.21365       58.20298       55.68593
C         71.80307       59.64625       55.37092
N         72.96026       60.43777       54.95097
H         72.07730       53.73478       57.56598
H         70.22776       55.76637       58.29969
H         71.78224       55.42917       55.65484
H         72.40226       56.06011       57.22450
H         70.67970       57.88654       57.16842
H         70.19886       57.34780       55.50918
H         72.61651       57.72138       54.76791
H         73.01924       58.22711       56.45398
H         71.35968       60.11441       56.27791
H         71.03758       59.64453       54.56401
H         73.66181       60.48363       55.72626
H         73.40222       60.01616       54.10225
H         72.64794       61.40989       54.72612
N         69.12978       53.97995       55.61589
C         67.91069       53.66210       54.86030
C         67.35650       52.26621       55.16690
O         66.43413       51.83995       54.48511
C         68.14891       53.86171       53.34229
C         69.18362       52.96623       52.71108
O         69.38371       53.03668       51.50938
O         69.89875       52.09620       53.44165
H         69.99990       53.48202       55.38738
H         67.09170       54.36308       55.13041
H         68.44767       54.91565       53.15988
H         67.18673       53.68567       52.81327
N         67.81279       51.52440       56.21508
C         67.29307       50.21332       56.57935
C         67.50391       49.10254       55.55949
O         66.99691       48.01911       55.81604
H         68.49416       51.94506       56.85181
H         66.20238       50.31489       56.76425
H         67.76375       49.88557       57.53145
N         68.18213       49.26814       54.38207
C         68.19024       48.22881       53.34957
C         68.93688       46.95842       53.74147
O         68.80266       45.98028       53.01835
C         68.66403       48.77609       51.98310
C         70.15382       48.97816       51.86383
N         70.84424       48.40988       50.84813
O         70.74279       49.67288       52.67170
H         68.59919       50.17894       54.16879
H         67.12054       47.95904       53.19653
H         68.14457       49.74020       51.79221
H         68.34185       48.06965       51.18740
H         70.37136       47.83256       50.13742
H         71.85612       48.57125       50.75660
N         69.71733       46.87866       54.86224
C         70.30469       45.62886       55.32132
C         71.81458       45.62641       55.43789
O         72.31898       44.60605       55.88534
H         69.85589       47.71047       55.45415
H         70.02381       44.77822       54.66422
H         69.88507       45.41442       56.32868
N         72.61526       46.68098       55.08339
C         74.07011       46.61575       55.27943
C         74.68370       47.95977       55.62267
O         74.04924       48.97643       55.43198
C         74.75522       45.90592       54.08918
C         74.70219       46.66637       52.77649
C         75.43802       47.85407       52.60089
C         73.95038       46.17083       51.69550
C         75.41894       48.53018       51.37828
C         73.93261       46.85063       50.47202
C         74.66795       48.03375       50.31028
O         74.66383       48.69820       49.13666
H         72.18744       47.53834       54.70596
H         74.24930       46.00719       56.19376
H         74.25882       44.91808       53.97043
H         75.82107       45.70215       54.32577
H         76.04596       48.25503       53.39877
H         73.37730       45.25771       51.79540
H         75.99594       49.43914       51.25973
H         73.34729       46.45770       49.64988
H         74.16157       48.38829       48.36962
N         75.93195       48.03083       56.16549
C         76.55034       49.28463       56.58990
C         77.82459       49.50575       55.81039
O         78.66932       48.62246       55.77635
C         76.84544       49.26561       58.11948
C         75.57440       49.01565       58.97053
C         77.54440       50.56840       58.57228
C         74.50880       50.10367       58.85740
H         76.45485       47.15587       56.31939
H         75.87972       50.14684       56.40299
H         77.54038       48.42391       58.33209
H         75.86971       48.94200       60.04003
H         75.11932       48.04399       58.68392
H         76.93426       51.46426       58.33196
H         77.73697       50.54839       59.66522
H         78.52373       50.68573       58.06815
H         73.64874       49.83906       59.50669
H         74.90420       51.08249       59.18537
H         74.14904       50.20740       57.82013
N         78.05974       50.71893       55.23653
C         79.30624       51.06008       54.56966
C         80.09875       52.02935       55.42715
O         79.61367       52.46184       56.46201
C         78.99884       51.66089       53.18710
O         78.23411       52.82871       53.32862
H         77.35888       51.46481       55.34915
H         79.93594       50.15439       54.43735
H         78.42975       50.91603       52.58818
H         79.95031       51.90050       52.66357
H         78.11698       53.20188       52.41701
N         81.35438       52.40030       55.05424
C         82.15710       53.36205       55.80309
C         81.47249       54.71215       55.83866
O         81.49703       55.36433       56.87284
C         83.54177       53.50625       55.17086
H         81.74968       51.98695       54.19602
H         82.31281       52.99425       56.84306
H         84.05729       52.52188       55.17571
H         83.46257       53.86950       54.12465
H         84.15492       54.22177       55.76024
N         80.79841       55.16978       54.74556
C         80.04949       56.41907       54.72841
C         78.98674       56.42897       55.81692
O         78.99547       57.33420       56.63937
C         79.39988       56.62047       53.35180
H         80.79573       54.58568       53.89452
H         80.75293       57.26579       54.89362
H         80.18332       56.63770       52.56351
H         78.69130       55.79653       53.11998
H         78.85101       57.58512       53.31975
N         78.04622       55.44232       55.89047
C         76.99724       55.41500       56.91235
C         77.54056       55.27613       58.32772
O         76.78838       55.53572       59.25725
C         76.03581       54.23306       56.67752
C         75.22094       54.37565       55.38952
C         74.36201       53.16479       55.19162
O         74.86960       52.07358       54.99326
O         73.02466       53.27738       55.22770
H         78.07583       54.69418       55.18305
H         76.43044       56.37151       56.85248
H         75.30992       54.16236       57.51915
H         76.63339       53.29555       56.66030
H         75.87155       54.49497       54.49858
H         74.57702       55.27769       55.48055
N         78.79517       54.80992       58.57665
C         79.32686       54.61109       59.90927
H         80.25875       55.20184       60.02502
H         78.61374       54.91832       60.70263
H         79.56236       53.53490       60.05000
H         79.39913       54.54403       57.79394
Ca        72.11374       50.67681       54.90767
O         73.34680       50.96608       51.87416
H         73.04111       51.14195       50.94880
H         74.20846       51.44791       51.94805
O         72.32547       54.15397       52.66850
H         72.02450       53.34242       52.18991
H         73.31344       54.10518       52.63060

Ca 1.0



