%chk=holoCaM-CaMKII.loop2.water2.frame88.chk
%nprocshared=20
%mem=10GB
%nosave
#b3lyp/svp scf=(tight,noincore,xqc) Test 
#IOP(5/87=12) Density=Current Pop=(MK,readradii) iop(6/33=2) iop(6/42=6)

holoCaM-CaMKII.loop2.water2.frame88 

   -2  1 
C          8.59227       56.46215       76.53910
C          7.52435       56.88236       77.50817
O          6.62391       57.61688       77.13939
H          9.58987       56.76942       76.91590
H          8.57457       55.35416       76.44011
H          8.42485       56.90581       75.53562
N          7.56262       56.41091       78.77937
C          6.51923       56.62270       79.77918
C          6.29056       58.08566       80.15864
O          7.23120       58.86571       80.19185
C          6.88675       55.80561       81.02765
C          5.87357       55.92241       82.10966
O          6.24628       56.39966       83.31160
O          4.71549       55.60001       81.90382
H          8.35892       55.80072       79.02533
H          5.56840       56.21190       79.37567
H          7.86760       56.15051       81.41839
H          6.97467       54.73451       80.74934
N          5.02738       58.49271       80.49881
C          4.65606       59.84146       80.91540
C          3.78964       59.86149       82.18903
O          3.34358       60.94274       82.55030
C          3.84790       60.47189       79.77421
H          4.26409       57.80755       80.42128
H          5.55868       60.47189       81.07279
H          4.45297       60.48227       78.84290
H          2.91675       59.89364       79.58859
H          3.57371       61.52127       80.01692
N          3.46799       58.73108       82.89803
C          2.44438       58.72388       83.95701
C          2.39734       57.47045       84.86606
O          1.55119       57.45311       85.75024
C          1.06094       58.97488       83.30616
C          0.78473       58.02394       82.16964
O          0.61843       58.45654       81.04038
O          0.73609       56.69841       82.37927
H          3.89124       57.85091       82.61011
H          2.65428       59.55410       84.66880
H          1.03207       60.00825       82.90102
H          0.25205       58.90660       84.06473
N          3.29462       56.44420       84.79801
C          3.37523       55.36553       85.77604
C          2.29298       54.30501       85.71151
O          2.34017       53.41486       86.54967
H          4.04528       56.47497       84.11757
H          3.40593       55.80950       86.79482
H          4.33668       54.82626       85.62483
N          1.30661       54.29009       84.76892
C          0.26959       53.25498       84.74033
C          0.76492       51.86387       84.29946
O         -0.06148       50.96782       84.19285
C         -0.96515       53.71490       83.92932
C         -0.82119       53.86446       82.44091
N         -1.92162       54.17101       81.71604
O          0.25303       53.70336       81.88384
H          1.25699       55.06035       84.09321
H         -0.13439       53.15580       85.77254
H         -1.31982       54.68694       84.33742
H         -1.77118       52.96829       84.09753
H         -2.83306       54.30721       82.17608
H         -1.88344       54.25652       80.69694
N          2.08516       51.58582       84.07530
C          2.59274       50.26357       83.72726
C          2.36999       49.84764       82.28230
O          2.80046       48.75582       81.93858
H          2.79069       52.30824       84.24467
H          2.16256       49.50713       84.42157
H          3.69327       50.26090       83.88015
N          1.70708       50.63279       81.38461
C          1.42207       50.23179       80.00869
C          1.77674       51.32813       79.01360
O          1.40299       52.47397       79.22149
C         -0.07901       49.90037       79.86814
C         -0.45867       48.68601       80.71843
O         -0.87720       50.99288       80.24889
H          1.31687       51.52539       81.70191
H          1.96920       49.30218       79.73154
H         -0.28884       49.61653       78.80832
H         -0.99790       51.56170       79.44458
H         -1.52929       48.43990       80.56363
H          0.15084       47.80447       80.42207
H         -0.29459       48.88960       81.79743
N          2.40303       51.01608       77.84281
C          2.59214       51.98065       76.75782
C          1.22345       52.45761       76.27038
O          0.41894       51.62844       75.86685
C          3.41798       51.34452       75.58350
C          4.84644       50.97293       76.07596
C          3.50323       52.30585       74.37737
C          5.71213       50.26051       75.03248
H          2.68891       50.03684       77.69170
H          3.17247       52.84935       77.12991
H          2.89844       50.42113       75.24113
H          4.77704       50.28827       76.94518
H          5.37851       51.89048       76.40662
H          4.01899       53.24620       74.66135
H          4.03898       51.84514       73.52394
H          2.49318       52.54538       73.99150
H          5.92674       50.91059       74.16082
H          6.68939       49.99578       75.48937
H          5.21722       49.32785       74.68924
N          0.92515       53.79191       76.22198
C         -0.30083       54.32418       75.62472
C          0.01062       54.82891       74.22737
O          1.15761       54.73736       73.82201
C         -0.93071       55.42407       76.50799
C         -1.40924       54.85718       77.81797
O         -2.59924       54.64878       77.98946
O         -0.55263       54.63676       78.83189
H          1.65116       54.46729       76.49858
H         -1.05148       53.51493       75.48794
H         -1.81733       55.82271       75.97184
H         -0.23963       56.28104       76.67247
N         -0.96155       55.29654       73.38929
C         -0.66586       55.64375       72.00183
C          0.31669       56.81051       71.89251
O          1.29578       56.63769       71.18033
C         -1.93231       55.88838       71.14912
C         -1.55927       55.99394       69.68534
C         -1.68874       57.21150       68.99646
C         -1.05718       54.87003       69.00085
C         -1.31227       57.30352       67.65185
C         -0.68985       54.96518       67.65639
C         -0.81409       56.18183       66.98281
H         -1.93850       55.33192       73.71842
H         -0.18913       54.74361       71.55118
H         -2.46149       56.79902       71.47249
H         -2.64659       55.04449       71.26478
H         -2.06389       58.09200       69.50245
H         -0.95197       53.91800       69.50632
H         -1.40292       58.24609       67.12839
H         -0.30583       54.09546       67.13830
H         -0.52323       56.25474       65.94283
N          0.17132       58.01074       72.55596
C          1.11794       59.12584       72.44604
C          2.56058       58.81888       72.84004
O          3.40097       59.69852       72.71082
C          0.56527       60.17429       73.41864
C         -0.91646       59.89900       73.37122
C         -0.94385       58.37420       73.40716
H          1.07772       59.48214       71.39235
H          0.88830       59.92176       74.45636
H          0.87462       61.21825       73.19722
H         -1.51370       60.39061       74.16768
H         -1.29099       60.23751       72.37716
H         -0.75579       57.97802       74.42917
H         -1.93456       58.05404       73.05064
N          2.91959       57.59937       73.32181
C          4.26800       57.20451       73.68126
C          4.79588       56.29758       72.58921
O          5.83539       56.59956       72.02107
C          4.23611       56.47878       75.03516
C          3.70178       57.38036       76.15908
C          3.52609       56.62173       77.43665
O          2.94624       57.22328       78.47963
O          3.76110       55.42616       77.50163
H          2.20490       56.87969       73.43984
H          4.94314       58.08546       73.76274
H          5.25252       56.11667       75.30102
H          3.56597       55.59444       74.94791
H          2.69482       57.76145       75.88261
H          4.36757       58.25159       76.31778
N          4.10030       55.19243       72.20150
C          4.52260       54.35012       71.10754
H          5.50650       53.89336       71.33658
H          3.77580       53.54236       70.94718
H          4.59008       54.95235       70.17616
H          3.22057       54.95223       72.66921
Ca         1.13607       56.07420       79.03139
O          3.55930       53.15174       81.98307
H          3.93296       52.39754       81.46479
H          4.19788       53.27025       82.73094
O          5.01028       53.40458       79.27657
H          5.15519       53.39338       78.29909
H          5.78213       52.90417       79.64059

Ca 1.0



