%chk=holoCaM.loop2.water2.frame72.chk
%nprocshared=20
%mem=10GB
%nosave
#b3lyp/svp scf=(tight,noincore,xqc) Test 
#IOP(5/87=12) Density=Current Pop=(MK,readradii) iop(6/33=2) iop(6/42=6)

holoCaM.loop2.water2.frame72 

   -2  1 
C         66.37758       32.67257       17.50049
C         65.13345       33.27391       16.89908
O         64.16314       32.56210       16.69966
H         67.18041       33.43210       17.62419
H         66.14300       32.26651       18.50854
H         66.76351       31.85560       16.85882
N         65.08192       34.60604       16.63763
C         63.88138       35.31739       16.20305
C         63.50572       35.07916       14.74552
O         64.35300       35.23891       13.87784
C         64.10518       36.81390       16.41253
C         62.90410       37.61709       16.01807
O         63.05331       38.44623       15.13562
O         61.66716       37.45372       16.56701
H         65.92144       35.16296       16.86465
H         63.04178       35.05536       16.86819
H         64.98035       37.13703       15.80089
H         64.35045       37.01142       17.46949
N         62.20476       34.81671       14.40934
C         61.71730       34.73416       13.03557
C         60.57210       35.72012       12.72812
O         60.12437       35.70874       11.58952
C         61.24355       33.29970       12.77760
H         61.51756       34.68474       15.16230
H         62.54082       34.94800       12.32032
H         60.40390       33.03661       13.45685
H         60.90687       33.17864       11.72570
H         62.08011       32.59014       12.95460
N         60.01488       36.55891       13.66336
C         58.82395       37.38757       13.39729
C         58.98488       38.88935       13.68189
O         58.06646       39.63541       13.37017
C         57.64101       36.82537       14.21134
C         57.93103       36.77961       15.68634
O         58.18425       37.80350       16.29523
O         57.93218       35.60092       16.33723
H         60.38180       36.54658       14.62168
H         58.54567       37.31655       12.32363
H         57.43376       35.79105       13.86326
H         56.72744       37.43361       14.03384
N         60.09348       39.40785       14.27013
C         60.30286       40.82674       14.52808
C         59.30359       41.43295       15.49356
O         58.66573       42.41501       15.14148
H         60.84437       38.77064       14.52863
H         60.29100       41.38387       13.56592
H         61.31108       40.95826       14.97894
N         59.15527       40.92557       16.74934
C         58.31309       41.52953       17.78387
C         59.13260       41.91351       19.02284
O         58.54404       42.25954       20.03808
C         57.12138       40.60203       18.11335
C         57.44162       39.25333       18.69996
N         56.43121       38.40044       18.97436
O         58.59228       38.91255       18.91930
H         59.68538       40.07682       16.99021
H         57.84228       42.46713       17.41454
H         56.55161       40.43510       17.17289
H         56.44751       41.12565       18.82620
H         55.45223       38.66029       18.78666
H         56.62769       37.47512       19.36822
N         60.49962       41.93576       18.99049
C         61.35143       42.32089       20.10857
C         61.42162       41.32060       21.25487
O         62.14682       41.60178       22.19817
H         60.97885       41.75376       18.10039
H         61.02776       43.31425       20.48952
H         62.39051       42.43145       19.72907
N         60.70021       40.16193       21.27364
C         60.67577       39.23745       22.40646
C         60.87065       37.78903       21.97737
O         60.18588       37.33289       21.07370
C         59.31696       39.35292       23.13652
C         59.16763       40.71259       23.82171
O         58.24422       39.16978       22.24592
H         60.07025       39.95929       20.49296
H         61.45467       39.49152       23.15969
H         59.27646       38.59434       23.95548
H         58.05594       38.19658       22.20569
H         59.99154       40.86270       24.55334
H         59.18848       41.53829       23.08055
H         58.20420       40.75085       24.37164
N         61.69760       36.96957       22.69284
C         61.74874       35.51610       22.51299
C         60.35938       34.92003       22.68616
O         59.69853       35.17210       23.68453
C         62.79222       34.86457       23.48416
C         64.21842       35.19915       22.96394
C         62.60544       33.33355       23.59967
C         65.36136       34.66262       23.82694
H         62.24671       37.38472       23.46085
H         62.07764       35.27226       21.48545
H         62.64285       35.27592       24.50745
H         64.33651       36.30092       22.89571
H         64.34199       34.77789       21.94031
H         63.31581       32.89274       24.32656
H         61.60080       33.08991       24.00361
H         62.73349       32.83942       22.61637
H         65.29577       35.07279       24.85520
H         65.36116       33.55418       23.86362
H         66.32926       34.96885       23.37644
N         59.90550       34.04279       21.74663
C         58.63607       33.33720       21.79813
C         58.87761       31.89639       22.23301
O         60.02380       31.54351       22.45257
C         57.98316       33.42299       20.40351
C         57.65248       34.84973       20.04379
O         58.49898       35.68735       19.37823
O         56.56479       35.27959       20.39269
H         60.53446       33.79125       20.97356
H         57.96784       33.78804       22.56622
H         57.03475       32.84126       20.41530
H         58.62959       32.97097       19.62185
N         57.85496       31.02199       22.46478
C         58.08323       29.67891       23.00627
C         58.88230       28.78613       22.05519
O         59.89698       28.27499       22.50354
C         56.76784       29.01232       23.47591
C         56.99478       27.66207       24.13088
C         57.80619       27.54120       25.27631
C         56.38254       26.50808       23.60814
C         58.00114       26.29421       25.87920
C         56.57701       25.26388       24.21832
C         57.38579       25.15701       25.35210
H         56.88525       31.34766       22.32637
H         58.68315       29.80134       23.93625
H         56.05459       28.90719       22.64218
H         56.28383       29.67767       24.22259
H         58.28827       28.40796       25.70825
H         55.75065       26.56898       22.73119
H         58.62729       26.20985       26.75844
H         56.09866       24.38133       23.81333
H         57.53415       24.19360       25.82355
N         58.53085       28.54519       20.74778
C         59.33139       27.73325       19.82840
C         60.79435       28.12310       19.83672
O         61.66699       27.26613       19.85734
C         58.73850       28.07211       18.44912
C         57.28969       28.31034       18.78299
C         57.40056       29.13680       20.05904
H         59.19289       26.65545       20.06511
H         59.12766       29.05243       18.08626
H         58.93642       27.31199       17.66325
H         56.68560       28.78228       17.97918
H         56.84130       27.32358       19.04036
H         57.63476       30.20399       19.84604
H         56.43867       29.05245       20.58753
N         61.10764       29.44182       19.83627
C         62.45310       29.98963       19.79212
C         63.24692       29.54158       21.00626
O         64.32235       28.98406       20.84229
C         62.37518       31.52848       19.68930
C         61.56819       31.94848       18.43770
C         61.47092       33.41975       18.25765
O         62.10012       34.27100       19.08847
O         60.79904       33.85126       17.33706
H         60.31444       30.09508       19.88476
H         62.96661       29.63582       18.87012
H         63.40453       31.94458       19.62404
H         61.88635       31.94304       20.59400
H         60.52074       31.59863       18.49055
H         62.02298       31.50801       17.52791
N         62.74762       29.70954       22.25982
C         63.42735       29.25051       23.44911
H         64.39390       29.78162       23.56528
H         62.79617       29.45385       24.34208
H         63.59913       28.15492       23.38671
H         61.83102       30.14427       22.37726
Ca        60.38361       36.38466       18.18785
O         63.16000       37.33333       19.64341
H         63.25081       36.40841       19.97235
H         64.08318       37.68852       19.66607
O         61.93034       39.46669       18.39778
H         61.97027       39.79754       17.46607
H         62.72923       39.86152       18.82581

Ca 1.0



