%chk=holoCaM-CaMKII.loop1.water2.frame43.chk
%nprocshared=20
%mem=10GB
%nosave
#b3lyp/svp scf=(tight,noincore,xqc) Test 
#IOP(5/87=12) Density=Current Pop=(MK,readradii) iop(6/33=2) iop(6/42=6)

holoCaM-CaMKII.loop1.water2.frame43 

   0  1 
C          0.56585       71.17761        8.22199
C         -0.79559       71.80254        8.18382
O         -1.27404       72.22571        9.21883
H          1.29246       71.91260        8.62844
H          0.54811       70.28206        8.87787
H          0.89986       70.87364        7.20816
N         -1.49463       71.88573        7.02361
C         -2.80379       72.51223        6.92392
C         -3.83096       71.42975        6.64791
O         -4.41323       71.37894        5.57418
C         -2.71825       73.62541        5.86522
C         -4.01536       74.35139        5.70174
O         -4.55429       74.38211        4.60943
O         -4.58420       74.97591        6.75050
H         -1.08754       71.48109        6.16614
H         -3.10305       72.99819        7.87861
H         -2.40164       73.19598        4.88941
H         -1.95185       74.36581        6.18443
N         -4.08022       70.50108        7.61670
C         -5.00130       69.37839        7.44795
C         -6.47251       69.79193        7.35265
O         -7.28574       68.91707        7.08772
C         -4.84626       68.36694        8.60908
C         -3.43107       67.76523        8.68640
C         -3.34828       66.70703        9.79638
C         -1.97647       66.01422        9.87272
N         -0.90014       66.93450       10.24553
H         -3.55115       70.58166        8.49812
H         -4.72863       68.85381        6.50527
H         -5.56069       67.52946        8.44861
H         -5.09882       68.86143        9.57405
H         -2.69188       68.56654        8.88352
H         -3.18767       67.28644        7.71309
H         -4.10781       65.92177        9.58819
H         -3.58624       67.16762       10.78017
H         -1.74038       65.53231        8.89796
H         -2.04078       65.21296       10.64194
H         -0.74538       67.65007        9.50084
H         -1.12446       67.40306       11.15326
H         -0.01510       66.38942       10.35910
N         -6.89877       71.07368        7.56136
C         -8.30284       71.48735        7.44344
C         -8.52905       72.47790        6.28394
O         -9.67679       72.81374        6.02755
C         -8.89932       71.95670        8.80199
C         -8.21819       73.10893        9.48244
O         -6.97427       73.46313        9.13899
O         -8.79398       73.71760       10.37017
H         -6.19714       71.78308        7.79574
H         -8.92732       70.61044        7.16576
H         -8.92821       71.11378        9.52600
H         -9.95495       72.24872        8.60733
N         -7.51228       72.87649        5.46195
C         -7.70971       73.53078        4.17077
C         -8.18225       74.97009        4.19953
O         -9.20350       75.26375        3.59524
H         -6.55465       72.57469        5.66884
H         -8.40478       72.91128        3.56237
H         -6.73998       73.53397        3.63150
N         -7.45148       75.93403        4.82539
C         -7.76973       77.36577        4.79244
C         -6.55204       78.22705        4.41502
O         -6.66623       79.44374        4.46679
C         -8.38700       77.76790        6.14385
C         -7.49642       77.41324        7.28052
O         -7.72198       76.27376        7.93243
O         -6.46163       78.01316        7.47357
H         -6.63972       75.63413        5.38080
H         -8.56016       77.58027        4.03999
H         -9.32397       77.17780        6.25122
H         -8.66513       78.84267        6.18404
N         -5.37818       77.67983        3.97409
C         -4.22846       78.46613        3.53754
C         -3.38755       79.06361        4.65343
O         -2.38447       79.68490        4.32480
H         -5.31336       76.66404        3.83773
H         -4.56078       79.25466        2.82744
H         -3.54279       77.79083        2.98041
N         -3.69042       78.91340        5.97477
C         -2.84672       79.40929        7.06332
C         -2.47053       78.28080        8.01442
O         -2.97815       77.17284        7.87726
C         -3.55050       80.55234        7.83708
C         -3.79043       81.78790        6.95524
O         -4.74812       80.10602        8.42023
H         -4.54447       78.40883        6.22505
H         -1.89531       79.81672        6.65400
H         -2.88936       80.89230        8.66245
H         -5.46790       80.18327        7.74244
H         -2.82448       82.17436        6.56854
H         -4.45051       81.54220        6.09625
H         -4.27610       82.58455        7.55835
N         -1.54508       78.49357        8.99176
C         -1.10363       77.47674        9.94156
C         -1.25962       78.02739       11.35522
O         -0.72869       79.09690       11.63127
C          0.37543       77.07220        9.64653
C          0.51901       76.59604        8.17385
C          0.82984       75.96281       10.61893
C          1.94972       76.23134        7.76974
H         -1.08831       79.41933        9.03922
H         -1.70814       76.54905        9.83374
H          1.02805       77.96185        9.79220
H          0.20221       77.41725        7.49671
H         -0.14072       75.71958        7.98888
H          0.74959       76.30479       11.66597
H          0.21039       75.04895       10.48850
H          1.89471       75.69750       10.46930
H          2.63063       77.09186        7.94037
H          2.31947       75.34775        8.32763
H          1.97043       75.97078        6.69047
N         -1.91595       77.32100       12.32052
C         -1.99152       77.74695       13.71904
C         -0.90901       77.05323       14.51468
O         -0.19308       76.24180       13.95512
C         -3.39180       77.47244       14.32599
C         -4.49049       78.26614       13.61513
O         -3.68107       76.09408       14.33471
H         -2.25053       76.37975       12.08263
H         -1.77890       78.83641       13.79645
H         -3.40393       77.81374       15.38272
H         -3.99628       75.83365       13.43138
H         -4.28954       79.35535       13.69221
H         -4.52355       77.98043       12.54758
H         -5.47601       78.05085       14.08136
N         -0.67967       77.36559       15.81667
C          0.42592       76.78473       16.57262
C          0.24128       75.28181       16.73895
O          1.16139       74.54262       16.42094
C          0.60168       77.49911       17.92928
C          1.89422       77.04557       18.62253
O          0.68880       78.88353       17.69977
H         -1.27240       78.08346       16.26256
H          1.36715       76.97820       16.00622
H         -0.28234       77.27444       18.57081
H          0.38979       79.33663       18.53047
H          2.02252       77.59069       19.58047
H          1.87657       75.95680       18.83378
H          2.77229       77.26994       17.97601
N         -0.94022       74.76064       17.18905
C         -1.18238       73.32160       17.32096
C         -0.86494       72.59053       16.03232
O         -0.12648       71.61596       16.08700
C         -2.63650       73.00806       17.74047
C         -2.93642       73.44780       19.18551
C         -4.28809       72.92348       19.70226
C         -5.50452       73.54581       19.00221
N         -6.74733       72.98911       19.53955
H         -1.70854       75.41410       17.40220
H         -0.51284       72.90386       18.10652
H         -2.76113       71.90190       17.70886
H         -3.35192       73.45745       17.01863
H         -2.88424       74.55222       19.28884
H         -2.15701       73.00228       19.84204
H         -4.35734       73.15876       20.78682
H         -4.31492       71.81668       19.59185
H         -5.46899       73.34825       17.91019
H         -5.49334       74.64662       19.16355
H         -7.56192       73.45106       19.07486
H         -6.78961       71.96115       19.34880
H         -6.80659       73.15611       20.57053
N         -1.33568       73.02904       14.83153
C         -0.98588       72.37879       13.57191
C          0.52654       72.25619       13.42339
O          1.00940       71.14300       13.26894
C         -1.58743       73.12879       12.36780
C         -3.11922       72.99495       12.30422
C         -3.68287       73.55851       11.02749
O         -3.54305       74.86111       10.72807
O         -4.28838       72.83153       10.25684
H         -1.92243       73.87752       14.81608
H         -1.39894       71.34461       13.56547
H         -1.17036       72.65217       11.47022
H         -1.27637       74.19565       12.36584
H         -3.59110       73.50067       13.16980
H         -3.38257       71.91561       12.34748
N          1.33382       73.34726       13.50270
C          2.77942       73.29161       13.43442
H          3.20246       73.67289       14.38858
H          3.15781       72.26083       13.27404
H          3.13454       73.93589       12.60399
H          0.91163       74.26438       13.65171
Ca        -6.22785       75.52312        9.39052
O         -6.50648       75.51291       12.40935
H         -6.62739       74.62598       11.98644
H         -7.28868       76.04021       12.10884
O         -5.92548       78.30163       10.47957
H         -6.53951       78.72215        9.83111
H         -6.46543       78.24586       11.30589

Ca 1.0



