%chk=holoCaM.loop1.water2.frame275.chk
%nprocshared=20
%mem=10GB
%nosave
#b3lyp/svp scf=(tight,noincore,xqc) Test 
#IOP(5/87=12) Density=Current Pop=(MK,readradii) iop(6/33=2) iop(6/42=6)

holoCaM.loop1.water2.frame275 

   0  1 
C         40.50036        4.95986       40.46068
C         40.59105        4.34790       39.09593
O         40.94896        5.03142       38.14960
H         39.45675        4.87373       40.83224
H         41.17804        4.42203       41.15634
H         40.78324        6.03288       40.43379
N         40.27145        3.03870       38.92822
C         40.29641        2.35668       37.64007
C         39.30813        3.00190       36.67280
O         38.14450        3.14764       37.01913
C         40.01951        0.85977       37.86895
C         40.01473        0.07171       36.60120
O         40.97254        0.09666       35.84690
O         38.94767       -0.68708       36.30795
H         39.99747        2.50328       39.76812
H         41.31592        2.42591       37.21829
H         39.04578        0.71743       38.38527
H         40.82353        0.45314       38.52256
N         39.72087        3.40810       35.43288
C         38.87816        4.13147       34.47971
C         38.47459        3.29074       33.26875
O         37.75389        3.82177       32.43429
C         39.62243        5.40003       33.99156
C         39.80976        6.45801       35.08713
C         40.55965        7.68336       34.53917
C         40.60530        8.82120       35.56870
N         41.33149        9.97728       35.04116
H         40.68921        3.20125       35.14681
H         37.92040        4.43543       34.95669
H         39.03130        5.88354       33.18288
H         40.60859        5.10568       33.56630
H         40.37888        6.03937       35.93960
H         38.80297        6.76961       35.44226
H         40.04215        8.06088       33.63005
H         41.59452        7.38383       34.26026
H         41.09843        8.47169       36.50233
H         39.56372        9.12851       35.81423
H         40.88647       10.31357       34.15601
H         41.30383       10.75044       35.74477
H         42.32900        9.72129       34.85865
N         38.84670        1.98802       33.10382
C         38.42364        1.17550       31.95707
C         37.58905       -0.02264       32.36753
O         37.16942       -0.75951       31.48411
C         39.66903        0.63460       31.23392
C         40.44109        1.70446       30.53565
O         41.67444        2.03374       30.94387
O         39.96061        2.27125       29.56788
H         39.44708        1.54239       33.81335
H         37.80010        1.76229       31.24745
H         39.39061       -0.10644       30.45268
H         40.30940        0.11056       31.97754
N         37.34886       -0.33084       33.66908
C         36.73425       -1.58254       34.06473
C         37.56446       -2.74456       33.56585
O         37.01919       -3.66401       32.97279
H         37.67337        0.29243       34.41939
H         35.68726       -1.64991       33.69902
H         36.71487       -1.62766       35.17534
N         38.91012       -2.74825       33.77838
C         39.79585       -3.85219       33.44467
C         40.39193       -4.44483       34.71969
O         41.20883       -5.34938       34.61744
C         40.85779       -3.41534       32.40095
C         41.82836       -2.33845       32.81055
O         41.79385       -1.78290       34.03118
O         42.67133       -1.96186       32.01243
H         39.33091       -1.93119       34.23873
H         39.22570       -4.67344       32.95666
H         40.32092       -3.05778       31.49487
H         41.45319       -4.30805       32.10862
N         39.96629       -4.04362       35.96141
C         40.41631       -4.66514       37.19358
C         41.84195       -4.33913       37.56319
O         42.36277       -5.00928       38.44512
H         39.22753       -3.33552       36.05843
H         40.27780       -5.76378       37.09804
H         39.78533       -4.32216       38.04179
N         42.54203       -3.33534       36.96058
C         43.93072       -3.03283       37.29040
C         44.19486       -1.53564       37.39011
O         43.33232       -0.72628       37.07605
C         44.87385       -3.70049       36.25872
C         44.88407       -5.23078       36.38425
O         44.54675       -3.31488       34.94785
H         42.08744       -2.78186       36.22335
H         44.17440       -3.43767       38.29789
H         45.91725       -3.38064       36.46051
H         43.70484       -3.77528       34.69087
H         45.19667       -5.52320       37.40985
H         43.88412       -5.66384       36.17493
H         45.61032       -5.65803       35.66173
N         45.39449       -1.11139       37.87636
C         45.78383        0.27957       38.06302
C         47.07200        0.54426       37.29143
O         48.07250       -0.11709       37.53701
C         45.92666        0.56429       39.59417
C         44.54765        0.53235       40.32036
C         46.66034        1.87875       39.91507
C         43.57826        1.67194       39.95136
H         46.07511       -1.82682       38.17837
H         45.01626        0.96646       37.67085
H         46.55682       -0.24417       40.02706
H         44.72345        0.59616       41.41609
H         44.04492       -0.43738       40.12149
H         46.74006        2.01338       41.01512
H         47.69357        1.86251       39.51290
H         46.13398        2.74864       39.49139
H         44.00301        2.66496       40.20664
H         43.30729        1.65952       38.87872
H         42.63819        1.56202       40.53139
N         47.12185        1.56768       36.39123
C         48.34527        2.04472       35.74761
C         48.86294        3.24271       36.52421
O         48.27740        3.59569       37.53326
C         48.07985        2.43172       34.26100
C         47.87845        1.21655       33.35361
O         47.00878        3.33958       34.15661
H         46.27761        2.14837       36.28539
H         49.15260        1.28064       35.78909
H         48.97266        2.93322       33.83623
H         46.16022        2.82785       34.09554
H         48.78283        0.57219       33.37622
H         47.00495        0.63187       33.68258
H         47.71956        1.55580       32.30642
N         49.97846        3.90901       36.12393
C         50.49167        5.10234       36.79685
C         49.45540        6.22253       36.80043
O         49.17690        6.75881       37.86388
C         51.80436        5.58450       36.13474
C         52.94704        4.58767       36.36021
O         51.61348        5.77731       34.75431
H         50.47742        3.55855       35.29336
H         50.73290        4.85912       37.85742
H         52.10556        6.53868       36.63107
H         52.02548        6.64601       34.51143
H         52.71825        3.59516       35.91984
H         53.87893        4.97318       35.89648
H         53.12830        4.45939       37.44947
N         48.82500        6.60731       35.65131
C         47.83154        7.69012       35.57876
C         46.58318        7.47710       36.44527
O         45.76105        8.38080       36.50862
C         47.39136        7.90418       34.10829
C         46.59778        6.69960       33.56821
C         46.22909        6.83877       32.09392
C         45.44974        5.59607       31.63484
N         45.11033        5.68084       30.21691
H         49.09115        6.11949       34.78421
H         48.33470        8.61782       35.92989
H         48.29824        8.07170       33.48735
H         46.75517        8.81373       34.03479
H         45.66030        6.59267       34.15046
H         47.20000        5.77888       33.68161
H         47.15945        6.93459       31.49310
H         45.60600        7.74761       31.94720
H         44.51529        5.49852       32.23295
H         46.06716        4.68549       31.80546
H         44.51685        6.52310       30.03956
H         45.98399        5.73306       29.64437
H         44.57694        4.82449       29.94237
N         46.37138        6.32112       37.13008
C         45.21322        6.04630       37.96740
C         45.64485        6.14292       39.41676
O         45.03873        6.90235       40.15931
C         44.62602        4.66286       37.59799
C         44.17655        4.66078       36.13178
C         43.63395        3.36732       35.61120
O         43.55709        2.36063       36.29242
O         43.24019        3.35442       34.33074
H         47.06391        5.57469       37.06512
H         44.41250        6.80472       37.81146
H         43.75658        4.43244       38.25121
H         45.39528        3.87865       37.73513
H         45.04438        4.89959       35.48876
H         43.39544        5.43914       35.99262
N         46.73905        5.46840       39.86770
C         47.28197        5.60702       41.20167
H         48.31104        6.02152       41.12741
H         46.67910        6.28803       41.83653
H         47.33369        4.61067       41.68521
H         47.25526        4.86080       39.22636
Ca        42.33941        1.74331       33.06755
O         44.91516        1.98114       31.78838
H         45.27858        1.44093       31.04356
H         44.36166        2.67344       31.34748
O         45.16720       -1.02317       33.53816
H         45.22742       -0.81635       34.50544
H         45.98202       -1.55413       33.34778

Ca 1.0



