%chk=holoCaM.loop4.water3.frame303.chk
%nprocshared=20
%mem=10GB
%nosave
#b3lyp/svp scf=(tight,noincore,xqc) Test 
#IOP(5/87=12) Density=Current Pop=(MK,readradii) iop(6/33=2) iop(6/42=6)

holoCaM.loop4.water3.frame303 

   -3  1 
C         26.00832       45.84985       93.33854
C         25.76416       46.99991       94.26633
O         24.69370       47.58102       94.18753
H         27.00493       45.39399       93.50743
H         25.22919       45.07568       93.50675
H         25.94397       46.20331       92.28803
N         26.70944       47.39134       95.17159
C         26.50071       48.48943       96.11316
C         27.78324       48.75122       96.90534
O         28.27478       47.82697       97.53982
C         25.35527       48.13687       97.10129
C         24.89131       49.30542       97.92214
O         23.98626       49.10822       98.89855
O         25.27112       50.43767       97.67502
H         27.61210       46.89183       95.17875
H         26.22177       49.39481       95.52877
H         25.69626       47.31952       97.77262
H         24.45080       47.77454       96.57551
N         28.36408       49.98824       96.93633
C         29.59191       50.28501       97.68595
C         29.34177       51.22439       98.87075
O         30.30438       51.57929       99.53689
C         30.68570       50.90207       96.74843
C         30.29722       52.31558       96.23266
C         31.00381       49.94877       95.58318
C         31.43869       53.06947       95.54966
H         27.90403       50.75602       96.42569
H         30.01398       49.35098       98.11724
H         31.60860       51.01339       97.36042
H         29.98529       52.95506       97.08238
H         29.45343       52.23691       95.53193
H         31.84413       50.33120       94.96957
H         31.30358       48.95407       95.97318
H         30.11757       49.82345       94.92411
H         31.08134       54.07959       95.25362
H         32.28752       53.19482       96.25529
H         31.78748       52.55196       94.63512
N         28.09883       51.70941       99.16142
C         27.88697       52.83781      100.07017
C         26.54630       52.82728      100.82964
O         26.37415       53.70021      101.67008
C         28.07399       54.16476       99.28651
C         27.16692       54.31366       98.08566
O         26.40149       53.28446       97.67450
O         27.13956       55.36918       97.47494
H         27.32878       51.40867       98.56575
H         28.66517       52.81229      100.86503
H         29.12342       54.24794       98.93120
H         27.89486       55.01149       99.98381
N         25.57061       51.89162      100.63612
C         24.35280       51.81215      101.43867
C         23.46606       53.04446      101.37494
O         23.24303       53.65038      102.41324
H         25.70688       51.15176       99.94291
H         24.64686       51.63095      102.49568
H         23.75293       50.93776      101.10566
N         22.90659       53.46069      100.20247
C         22.03156       54.63997      100.09465
C         20.66873       54.34140       99.47406
O         19.89700       55.27486       99.30007
C         22.76591       55.75913       99.33103
C         23.21754       55.40472       97.94639
O         22.87088       54.24418       97.36271
O         24.02186       56.13271       97.38991
H         23.14297       52.92923       99.35211
H         21.82197       55.06024      101.10209
H         23.68114       55.98528       99.92122
H         22.15516       56.68673       99.28988
N         20.28280       53.08028       99.13623
C         18.99512       52.77715       98.53130
C         18.87193       53.38494       97.15267
O         17.90196       54.07597       96.87818
H         20.90943       52.28780       99.32472
H         18.16558       53.10552       99.19444
H         18.91698       51.67385       98.41058
N         19.82907       53.11623       96.22592
C         19.79224       53.52363       94.81857
C         20.97536       52.92452       94.06363
O         21.95264       52.54482       94.69609
C         19.73671       55.06109       94.62586
C         20.92087       55.81028       95.26651
C         20.86948       57.30552       95.03587
N         21.84167       58.10194       95.53754
O         19.95636       57.80726       94.39613
H         20.60615       52.52974       96.55360
H         18.87273       53.07864       94.37868
H         18.79722       55.45896       95.06191
H         19.71109       55.27941       93.53582
H         21.87546       55.42813       94.84674
H         20.90592       55.63001       96.36127
H         22.62211       57.70589       96.07641
H         21.81783       59.12113       95.38525
N         20.94786       52.77645       92.70543
C         22.04216       52.14059       91.97372
C         22.68930       53.14701       91.03691
O         22.06410       53.61856       90.09771
C         21.59165       50.80455       91.31486
C         20.50604       50.95946       90.24083
C         22.79603       50.04546       90.73633
H         20.12055       53.10455       92.18443
H         22.82190       51.82932       92.69802
H         21.16652       50.16967       92.12516
H         20.87630       51.53938       89.37185
H         20.20032       49.95520       89.87504
H         19.60341       51.45017       90.65681
H         22.47889       49.05689       90.34146
H         23.27398       50.62234       89.91750
H         23.54949       49.85982       91.52912
N         23.95670       53.56290       91.30527
C         24.68575       54.57916       90.55550
C         25.05352       54.09444       89.15652
O         24.77983       52.95601       88.80394
C         25.95371       54.93368       91.38622
C         26.80605       56.07169       90.89000
N         26.29025       57.31288       90.73635
O         27.98533       55.87372       90.64078
H         24.40971       53.17619       92.14477
H         24.04573       55.48499       90.48066
H         26.58156       54.02298       91.47617
H         25.62047       55.21853       92.40284
H         25.30027       57.50355       90.94576
H         26.88426       58.08447       90.39810
N         25.70074       54.93900       88.30867
C         26.22809       54.57717       86.99838
C         27.30528       53.50868       87.16882
O         27.21097       52.45931       86.55060
C         26.78176       55.87074       86.34119
C         27.09752       55.87327       84.86237
C         26.97482       54.75170       84.02110
C         27.49157       57.10168       84.30161
C         27.23467       54.86902       82.64938
C         27.74528       57.21662       82.93493
C         27.61356       56.10010       82.10153
O         27.84001       56.20125       80.77618
H         25.83486       55.90874       88.61857
H         25.38976       54.20470       86.36885
H         27.66825       56.22747       86.91062
H         25.98358       56.63965       86.44658
H         26.66692       53.79123       84.40377
H         27.58532       57.98228       84.92674
H         27.12912       54.00362       82.00776
H         28.03412       58.17704       82.52581
H         28.08408       57.04079       80.35982
N         28.34617       53.70686       88.03265
C         29.39914       52.71919       88.28775
C         28.90862       51.46602       89.02478
O         29.71262       50.56061       89.20109
C         30.55049       53.34613       89.11842
C         31.21883       54.56017       88.44785
C         31.79868       54.21374       87.10574
O         31.40941       54.79027       86.10264
O         32.74811       53.26415       87.00224
H         28.39459       54.61315       88.51533
H         29.81730       52.39953       87.30840
H         31.33877       52.57945       89.29117
H         30.16149       53.65876       90.11320
H         32.03835       54.92480       89.10375
H         30.48850       55.38883       88.33825
N         27.62939       51.33118       89.48303
C         27.13228       50.14727       90.18559
C         26.08901       49.40186       89.35827
O         25.63918       48.35703       89.80937
C         26.47949       50.57193       91.51802
C         27.42807       51.31547       92.47134
C         26.69935       51.87606       93.66953
O         27.35785       52.64365       94.55090
O         25.50735       51.68367       93.83590
H         26.96705       52.09704       89.33672
H         27.96031       49.43243       90.38637
H         26.07183       49.68163       92.04815
H         25.63273       51.24681       91.26549
H         27.89087       52.16912       91.93744
H         28.23758       50.63325       92.81015
N         25.64443       49.87013       88.15519
C         24.63993       49.20495       87.35231
H         23.76927       49.88291       87.22597
H         25.06367       48.97836       86.35163
H         24.28524       48.25898       87.81040
H         26.00858       50.74850       87.77510
Ca        24.62669       53.38510       96.32586
O         23.30078       50.00580       94.75339
H         23.80702       49.89958       93.91207
H         22.36146       49.84529       94.48802
O         25.41937       55.99057       94.80130
H         24.52631       55.56611       94.74340
H         26.03423       55.24871       95.02909
O         22.17150       50.73540       97.28912
H         21.49452       50.25364       96.75158
H         21.91624       50.54527       98.22474

Ca 1.0



