%chk=holoCaM.loop2.water3.frame499.chk
%nprocshared=20
%mem=10GB
%nosave
#b3lyp/svp scf=(tight,noincore,xqc) Test 
#IOP(5/87=12) Density=Current Pop=(MK,readradii) iop(6/33=2) iop(6/42=6)

holoCaM.loop2.water3.frame499 

   -2  1 
C         67.51700       82.80832       11.17191
C         66.44127       83.85199       11.22854
O         65.87999       84.05889       12.29534
H         68.33192       83.07933       11.87588
H         67.09538       81.82419       11.46474
H         67.94578       82.72185       10.15156
N         66.10609       84.56668       10.11692
C         65.08889       85.60796       10.13720
C         63.72378       85.01763       10.47625
O         63.23599       84.17377        9.73841
C         65.06026       86.36665        8.78592
C         64.05451       87.47714        8.83966
O         64.11636       88.35583        9.85167
O         63.13142       87.52437        8.04547
H         66.61520       84.38364        9.23822
H         65.38257       86.34734       10.91535
H         64.82145       85.67307        7.94932
H         66.06257       86.80994        8.60154
N         63.06261       85.41420       11.60378
C         61.75877       84.88951       12.00672
C         60.60410       85.35007       11.11400
O         59.49760       84.87440       11.32836
C         61.45953       85.29541       13.45674
H         63.53638       86.07806       12.22984
H         61.81487       83.77837       11.98302
H         62.26920       84.93227       14.12587
H         61.38827       86.39996       13.54751
H         60.50373       84.84494       13.80063
N         60.76916       86.25613       10.10453
C         59.69193       86.68218        9.20857
C         59.93293       86.20417        7.77548
O         59.07159       86.42940        6.93625
C         59.58360       88.21912        9.21238
C         59.23630       88.80555       10.55403
O         60.10976       89.62196       11.17491
O         58.14424       88.59312       11.05565
H         61.69931       86.65795        9.94478
H         58.71999       86.24732        9.52821
H         58.80457       88.55387        8.49357
H         60.55162       88.63474        8.86385
N         61.06375       85.52777        7.41866
C         61.32976       85.00134        6.08972
C         61.55693       86.03100        4.99551
O         61.86836       85.60400        3.89245
H         61.77230       85.31541        8.12812
H         60.50919       84.31331        5.79503
H         62.26651       84.40354        6.14795
N         61.43019       87.37728        5.18315
C         61.68886       88.33721        4.11143
C         63.17221       88.35177        3.78746
O         63.53383       88.13714        2.63915
C         61.23527       89.75905        4.50584
C         59.74620       89.94262        4.74628
N         58.83866       88.94090        4.61689
O         59.35301       91.05583        5.06055
H         61.13492       87.74238        6.09798
H         61.11079       88.05987        3.20000
H         61.51453       90.45290        3.68176
H         61.78028       90.07394        5.41783
H         59.10080       87.98554        4.34348
H         57.83901       89.12650        4.78768
N         64.08580       88.57815        4.77547
C         65.52580       88.60497        4.56510
C         66.12376       89.86279        5.15480
O         66.74591       90.62849        4.43519
H         63.73940       88.70052        5.73780
H         65.78109       88.51994        3.48630
H         65.97862       87.73728        5.09049
N         66.00865       90.09010        6.49435
C         66.54159       91.24384        7.22875
C         66.56905       90.88019        8.71132
O         65.53970       90.49911        9.24702
C         65.70951       92.53901        7.01687
C         65.85302       93.16046        5.62274
O         64.35649       92.28760        7.28890
H         65.55166       89.34332        7.04100
H         67.59354       91.43260        6.92116
H         66.10703       93.28986        7.73947
H         63.89861       93.16756        7.32788
H         65.38560       92.53079        4.84326
H         65.33140       94.14067        5.59860
H         66.92512       93.33783        5.38983
N         67.73069       90.93699        9.42521
C         67.89326       90.33140       10.74592
C         67.96214       91.37788       11.85615
O         68.89885       92.16170       11.91235
C         69.14434       89.39228       10.69866
C         68.82507       88.16110        9.80612
C         69.60731       88.94628       12.09161
C         70.01393       87.22669        9.57370
H         68.56543       91.34953        8.98134
H         67.01315       89.69480       10.98161
H         69.99175       89.96685       10.26172
H         68.48121       88.50648        8.80825
H         67.99980       87.57423       10.26938
H         70.53937       88.35154       12.03558
H         69.86294       89.82036       12.72264
H         68.82190       88.34441       12.57423
H         69.69856       86.39294        8.91178
H         70.84387       87.77836        9.08491
H         70.37424       86.77329       10.51891
N         66.97728       91.39294       12.80653
C         66.96827       92.22039       14.01526
C         67.94261       91.65789       15.05273
O         68.59421       90.66736       14.77912
C         65.54477       92.21137       14.62648
C         64.51356       92.73087       13.66535
O         64.58375       93.87449       13.24437
O         63.49881       91.93677       13.27360
H         66.17855       90.75830       12.67483
H         67.22628       93.27032       13.75541
H         65.50292       92.85129       15.53167
H         65.27572       91.17148       14.92021
N         68.07094       92.23072       16.28783
C         68.94249       91.68734       17.33240
C         68.52791       90.28370       17.80027
O         69.39489       89.41674       17.77115
C         69.03584       92.64887       18.53876
C         70.01499       92.13551       19.57514
C         71.37450       91.96568       19.25055
C         69.57735       91.81076       20.87109
C         72.27354       91.47444       20.20103
C         70.48182       91.32037       21.81940
C         71.82784       91.15114       21.48422
H         67.54311       93.09150       16.48905
H         69.96827       91.62905       16.90709
H         68.03451       92.78941       18.98789
H         69.38032       93.64707       18.19289
H         71.74153       92.21000       18.26210
H         68.53705       91.92928       21.14675
H         73.31626       91.34313       19.94124
H         70.13897       91.06844       22.81448
H         72.52593       90.76948       22.21818
N         67.27062       89.94480       18.24990
C         66.90687       88.61800       18.75392
C         66.86569       87.53421       17.68007
O         66.51027       86.41003       17.99949
C         65.52855       88.84232       19.38598
C         64.94211       89.90320       18.48624
C         66.13081       90.84308       18.30606
H         67.60167       88.27824       19.55385
H         64.91157       87.92905       19.53044
H         65.67501       89.31944       20.38202
H         64.71439       89.42308       17.50722
H         64.02034       90.39556       18.86193
H         65.96637       91.41561       17.37733
H         66.24227       91.51477       19.18144
N         67.25924       87.78626       16.40519
C         67.30626       86.80122       15.34153
C         68.76527       86.46238       15.08292
O         69.10910       85.28801       15.10958
C         66.57564       87.38415       14.11821
C         65.08629       87.62213       14.43989
C         64.34626       88.32710       13.34382
O         64.91369       88.66579       12.32107
O         63.03803       88.60292       13.49867
H         67.57127       88.72564       16.14997
H         66.79590       85.85359       15.62607
H         66.66197       86.69408       13.25002
H         67.03805       88.35734       13.85194
H         64.99101       88.26035       15.34174
H         64.59631       86.64474       14.63937
N         69.70003       87.43777       14.91541
C         71.11143       87.15276       14.78291
H         71.68156       88.10431       14.70727
H         71.47059       86.60493       15.68084
H         71.29757       86.54727       13.87268
H         69.41724       88.42295       14.92683
Ca        62.28226       89.39516       10.62776
O         63.79564       92.90592       10.09874
H         63.81333       93.81634        9.71021
H         64.60548       92.86268       10.66541
O         61.13025       92.61782       11.27812
H         61.33962       93.34618       11.91543
H         60.17883       92.40449       11.44776
O         61.87163       90.89558        8.12822
H         61.71863       91.47808        7.34319
H         62.57329       90.25977        7.83739

Ca 1.0



