%chk=holoCaM.loop3.water2.frame384.chk
%nprocshared=20
%mem=10GB
%nosave
#b3lyp/svp scf=(tight,noincore,xqc) Test 
#IOP(5/87=12) Density=Current Pop=(MK,readradii) iop(6/33=2) iop(6/42=6)

holoCaM.loop3.water2.frame384 

   0  1 
C         76.53210       60.74509      -13.91195
C         76.66606       59.36266      -13.35691
O         76.67239       58.40704      -14.12081
H         75.60973       61.21220      -13.50927
H         77.41295       61.35240      -13.61453
H         76.47110       60.71785      -15.02051
N         76.80570       59.18302      -12.01530
C         76.96035       57.86405      -11.42308
C         75.64156       57.10977      -11.54665
O         74.66586       57.50164      -10.92168
C         77.44222       58.01834       -9.96502
C         77.91026       56.75685       -9.30841
O         78.42888       56.83823       -8.07086
O         77.87266       55.67942       -9.88164
H         76.84756       60.01917      -11.41083
H         77.77205       57.34293      -11.97850
H         76.64996       58.49209       -9.34553
H         78.32528       58.69446       -9.96875
N         75.52585       56.06798      -12.41569
C         74.26837       55.36867      -12.68310
C         73.76926       54.59259      -11.47408
O         72.60286       54.73044      -11.13291
C         74.41439       54.41615      -13.89376
C         74.66827       55.13166      -15.24386
C         73.47548       56.01536      -15.67100
C         73.56391       56.53142      -17.11711
N         74.67698       57.45770      -17.32289
H         76.36035       55.80687      -12.96116
H         73.48152       56.10313      -12.94826
H         73.47906       53.82511      -14.00764
H         75.23039       53.69215      -13.70060
H         74.79683       54.33663      -16.01033
H         75.60614       55.72521      -15.20802
H         73.36132       56.88417      -14.99000
H         72.55231       55.39891      -15.61095
H         72.61346       57.06318      -17.34900
H         73.65000       55.67233      -17.81847
H         74.64821       57.79907      -18.31136
H         74.58376       58.27956      -16.68280
H         75.59161       56.97927      -17.16521
N         74.59722       53.77057      -10.77154
C         74.16332       53.00898       -9.59298
C         74.42269       53.76241       -8.29654
O         74.01440       53.27609       -7.25062
C         74.77744       51.58254       -9.55935
C         76.27745       51.59623       -9.42501
O         76.82955       51.11399       -8.45033
O         76.99322       52.15805      -10.40814
H         75.58721       53.79797      -11.03487
H         73.06011       52.87684       -9.64043
H         74.50463       51.03840      -10.48932
H         74.34127       51.02541       -8.70122
N         75.05235       54.97049       -8.28400
C         75.22196       55.77201       -7.08879
C         76.03493       55.07838       -6.02850
O         75.54869       54.96196       -4.91199
H         75.39624       55.37875       -9.16167
H         74.22205       56.04468       -6.68390
H         75.73975       56.71634       -7.35958
N         77.29236       54.61738       -6.29309
C         78.15633       54.05307       -5.26175
C         79.42493       54.88804       -5.13416
O         80.50716       54.33567       -5.00993
C         78.42264       52.55312       -5.53905
C         79.31692       52.29460       -6.73420
N         80.45774       51.57965       -6.59488
O         79.01247       52.72597       -7.83364
H         77.65356       54.69368       -7.25187
H         77.63754       54.10781       -4.28079
H         77.44623       52.04524       -5.69796
H         78.88799       52.10183       -4.63669
H         80.73536       51.19680       -5.67933
H         81.06869       51.40465       -7.40630
N         79.35892       56.25100       -5.17120
C         80.51731       57.12578       -5.05373
C         81.54700       57.03319       -6.17857
O         82.53483       57.74363       -6.08209
H         78.43534       56.70111       -5.25960
H         81.02361       56.91056       -4.08692
H         80.16298       58.17870       -5.02234
N         81.42641       56.17733       -7.23992
C         82.47862       55.98467       -8.24011
C         81.92579       56.04046       -9.65786
O         80.96280       55.34676       -9.94454
C         83.11178       54.59753       -8.01080
C         83.81947       54.52122       -6.67677
C         83.36163       53.64913       -5.67824
C         84.94677       55.32097       -6.41864
C         84.00077       53.58935       -4.43787
C         85.59351       55.25327       -5.18055
C         85.11825       54.38917       -4.18349
O         85.72649       54.31678       -2.98256
H         80.60806       55.56070       -7.30503
H         83.28927       56.73723       -8.14187
H         83.85515       54.37442       -8.80759
H         82.30682       53.83295       -8.06649
H         82.50369       53.02116       -5.85422
H         85.32851       55.99394       -7.17595
H         83.62555       52.91945       -3.67442
H         86.46180       55.87337       -4.99730
H         86.50477       54.84985       -2.76680
N         82.57651       56.75952      -10.62649
C         82.21642       56.70516      -12.04419
C         83.31120       55.92113      -12.76283
O         84.43585       56.39027      -12.85452
C         82.02288       58.13945      -12.62790
C         80.84965       58.85062      -11.90461
C         81.78224       58.09594      -14.15276
C         80.65932       60.31509      -12.30869
H         83.42375       57.28612      -10.36832
H         81.26081       56.15205      -12.17540
H         82.95921       58.71332      -12.44748
H         81.03305       58.84048      -10.80920
H         79.90699       58.29989      -12.10209
H         80.83967       57.56154      -14.38688
H         81.72950       59.11688      -14.58066
H         82.62139       57.59246      -14.67570
H         81.58275       60.89457      -12.09700
H         80.39575       60.41723      -13.38041
H         79.82376       60.75163      -11.72140
N         83.04451       54.66758      -13.23320
C         84.04044       53.79304      -13.85137
C         84.39496       54.22716      -15.26788
O         83.81976       55.17971      -15.77483
C         83.50799       52.34243      -13.86189
O         82.32289       52.25549      -14.60422
H         82.10733       54.28530      -13.05975
H         84.95739       53.79430      -13.22201
H         83.30809       52.03501      -12.81343
H         84.26814       51.65134      -14.28531
H         82.03574       51.30662      -14.56261
N         85.33405       53.53155      -15.97968
C         85.68166       53.81951      -17.37285
C         84.55516       53.49816      -18.35795
O         84.72562       53.76246      -19.54003
C         86.91821       53.00608      -17.77675
H         85.83560       52.76805      -15.50019
H         85.94379       54.89760      -17.45244
H         87.76501       53.24089      -17.09806
H         86.70200       51.91692      -17.71887
H         87.22795       53.25479      -18.81456
N         83.38111       52.94009      -17.95103
C         82.26097       52.64142      -18.83132
C         81.18001       53.67100      -18.60133
O         80.71782       54.27314      -19.56090
C         81.74913       51.22520      -18.54984
H         83.24405       52.73653      -16.95611
H         82.55819       52.68536      -19.90308
H         81.41759       51.12390      -17.49358
H         80.89081       50.98822      -19.21448
H         82.55651       50.48653      -18.73986
N         80.78004       53.97824      -17.33523
C         79.80777       55.02241      -17.03197
C         80.26767       56.38374      -17.53473
O         79.42963       57.26453      -17.67224
C         79.54735       55.08736      -15.50834
C         78.93749       53.77173      -15.01054
C         78.73281       53.73244      -13.53205
O         77.61042       53.56221      -13.09077
O         79.77245       53.74059      -12.67667
H         81.21156       53.46698      -16.55657
H         78.86013       54.76645      -17.55767
H         78.84105       55.91543      -15.27573
H         80.50948       55.28365      -14.98446
H         79.58251       52.90444      -15.24992
H         77.96219       53.62473      -15.52378
N         81.57442       56.63516      -17.83394
C         82.01374       57.90025      -18.37651
H         83.11719       57.88979      -18.50713
H         81.54352       58.06114      -19.37009
H         81.74086       58.73023      -17.69205
H         82.29170       55.91551      -17.67415
Ca        79.08165       52.89935      -10.72122
O         79.72679       50.15421      -10.21663
H         78.95609       49.53647      -10.15595
H         80.46146       49.69352       -9.73983
O         82.11802       52.48618      -10.37727
H         82.38358       51.95685       -9.58428
H         81.75400       51.81669      -11.00804

Ca 1.0



