%chk=holoCaM.loop3.water2.frame177.chk
%nprocshared=20
%mem=10GB
%nosave
#b3lyp/svp scf=(tight,noincore,xqc) Test 
#IOP(5/87=12) Density=Current Pop=(MK,readradii) iop(6/33=2) iop(6/42=6)

holoCaM.loop3.water2.frame177 

   0  1 
C         31.63383       76.98147       95.65151
C         30.86363       77.73965       96.68661
O         31.39251       77.98739       97.75916
H         32.64706       76.72101       96.02469
H         31.09040       76.04581       95.40488
H         31.73469       77.60196       94.73629
N         29.59883       78.16352       96.41117
C         28.77654       78.91516       97.35062
C         28.39634       78.04655       98.54272
O         27.37689       77.37409       98.49381
C         27.57865       79.54171       96.59094
C         26.57061       80.32267       97.40080
O         26.90975       81.37018       98.18322
O         25.39241       80.03024       97.29350
H         29.22675       77.97357       95.46778
H         29.38036       79.74743       97.70551
H         27.03271       78.73382       96.05526
H         27.99611       80.22954       95.82217
N         29.17924       78.04031       99.66609
C         28.88177       77.24544      100.85740
C         28.13403       78.06362      101.89519
O         27.76690       77.49488      102.91744
C         30.17720       76.65428      101.46143
C         30.84923       75.64926      100.51720
C         32.11834       75.05044      101.14490
C         32.74662       73.94277      100.27990
N         33.19991       74.43231       98.97650
H         30.00040       78.66263       99.70411
H         28.20415       76.40392      100.59307
H         29.92624       76.11507      102.40246
H         30.88274       77.47738      101.71492
H         31.10671       76.15812       99.56886
H         30.13016       74.82822      100.30595
H         31.85363       74.59441      102.12451
H         32.86601       75.85319      101.32853
H         32.01245       73.11909      100.13526
H         33.61965       73.52621      100.83000
H         32.39152       74.74860       98.39565
H         33.88135       75.21546       99.10171
H         33.67323       73.65022       98.46903
N         27.81043       79.37194      101.69054
C         26.96138       80.14136      102.58966
C         25.63053       80.48611      101.92112
O         24.80878       81.12490      102.55949
C         27.70829       81.36946      103.16142
C         28.28926       82.30856      102.14683
O         27.87916       83.58888      102.09968
O         29.20184       81.94251      101.42715
H         28.11479       79.83783      100.82305
H         26.67952       79.53480      103.47822
H         28.54832       81.01446      103.79683
H         27.00954       81.93138      103.81774
N         25.30675       80.01296      100.67569
C         23.98845       80.16253      100.07999
C         23.61138       81.56897       99.66903
O         22.50494       81.71965       99.16766
H         25.97083       79.42752      100.15418
H         23.22859       79.77023      100.79008
H         23.93096       79.52553       99.17403
N         24.42039       82.65322       99.86133
C         23.94323       84.00558       99.58602
C         23.79935       84.31714       98.09518
O         23.18893       85.32796       97.78150
C         24.77775       85.05574      100.35097
C         26.15861       85.30643       99.79734
N         26.56376       86.57295       99.54836
O         26.92617       84.37740       99.60077
H         25.33455       82.52848      100.31634
H         22.93038       84.06794      100.04650
H         24.87222       84.71283      101.40471
H         24.21776       86.01578      100.37163
H         25.94119       87.37441       99.72932
H         27.50573       86.76289       99.18113
N         24.33821       83.51266       97.12580
C         24.15092       83.73698       95.69470
C         25.41197       84.17697       94.97005
O         25.32645       84.40702       93.77059
H         24.90235       82.70032       97.39912
H         23.39700       84.53321       95.51885
H         23.75529       82.80337       95.23988
N         26.58883       84.39038       95.62195
C         27.76225       85.01347       95.01103
C         28.99828       84.14916       95.16960
O         29.26694       83.69402       96.27422
C         27.99373       86.36035       95.71970
C         26.91393       87.36070       95.37462
C         25.94746       87.73647       96.31835
C         26.87861       87.94269       94.09613
C         24.96748       88.67894       95.99913
C         25.90470       88.89507       93.77865
C         24.94590       89.26769       94.73203
O         24.00451       90.18878       94.44429
H         26.64199       84.19555       96.63363
H         27.61667       85.22024       93.92737
H         28.97046       86.80681       95.43050
H         28.03238       86.17444       96.81607
H         25.94222       87.29568       97.29591
H         27.61745       87.67260       93.35200
H         24.22775       88.95466       96.74055
H         25.89975       89.34564       92.79446
H         23.96332       90.63129       93.58470
N         29.85619       83.97149       94.11852
C         31.12208       83.25194       94.22596
C         32.26782       84.25285       94.14962
O         32.51590       84.83060       93.09961
C         31.22992       82.14711       93.13185
C         30.13668       81.07280       93.36433
C         32.63810       81.51033       93.10891
C         30.05554       80.02361       92.25330
H         29.64083       84.42828       93.21785
H         31.18823       82.74981       95.21572
H         31.06413       82.62743       92.14096
H         29.14257       81.56616       93.41276
H         30.31591       80.56075       94.33591
H         33.41646       82.27496       92.90757
H         32.86683       81.01572       94.07416
H         32.73506       80.77156       92.28956
H         29.23083       79.31530       92.47820
H         29.84695       80.51411       91.27876
H         30.98828       79.43043       92.17578
N         33.00182       84.50135       95.26880
C         34.16013       85.37900       95.33661
C         35.41285       84.65467       94.86465
O         35.35161       83.48007       94.52543
C         34.36244       85.84743       96.79770
O         34.68315       84.76410       97.63412
H         32.69329       84.06394       96.13795
H         33.97046       86.28915       94.72623
H         33.43788       86.36748       97.14417
H         35.18151       86.59140       96.87159
H         33.96920       84.68750       98.31852
N         36.60938       85.30317       94.87413
C         37.88169       84.66240       94.56521
C         38.18714       83.54867       95.55142
O         38.53039       82.45727       95.12152
C         39.01417       85.69422       94.62247
H         36.61880       86.29946       95.14154
H         37.86007       84.25722       93.52849
H         39.98271       85.21165       94.36907
H         38.82453       86.50372       93.88618
H         39.09273       86.14425       95.63552
N         38.10003       83.76828       96.89601
C         38.46112       82.77251       97.90120
C         37.65955       81.49276       97.75739
O         38.25367       80.44286       97.55280
C         38.26584       83.34824       99.31357
H         37.78374       84.69726       97.21545
H         39.54048       82.53082       97.78205
H         37.20595       83.63366       99.48949
H         38.56157       82.60122      100.08083
H         38.89118       84.25583       99.44579
N         36.30491       81.50009       97.88792
C         35.49407       80.28330       97.85521
C         35.49023       79.57928       96.49807
O         34.93843       78.49053       96.41861
C         34.06435       80.60178       98.33861
C         33.29006       81.50148       97.36947
C         32.02645       81.99545       98.00141
O         31.78977       83.18753       98.08896
O         31.12972       81.12429       98.46090
H         35.85239       82.40133       98.09480
H         35.92801       79.58241       98.60270
H         34.15530       81.10951       99.32452
H         33.48908       79.66245       98.49558
H         33.04221       80.92260       96.45466
H         33.89787       82.37115       97.06433
N         36.08176       80.12631       95.39564
C         36.14787       79.47067       94.10495
H         37.21401       79.33644       93.82133
H         35.66117       78.47344       94.10650
H         35.65506       80.10728       93.34096
H         36.51525       81.05355       95.45361
Ca        29.02504       81.84112       98.70275
O         29.95297       85.88570       99.16906
H         29.80637       86.34815      100.03280
H         30.49687       86.51898       98.63729
O         31.29068       83.88262      100.85227
H         32.26291       83.97398      100.69012
H         31.15865       84.20474      101.77860

Ca 1.0



