%chk=holoCaM-CaMKII.loop3.water3.frame324.chk
%nprocshared=20
%mem=10GB
%nosave
#b3lyp/svp scf=(tight,noincore,xqc) Test 
#IOP(5/87=12) Density=Current Pop=(MK,readradii) iop(6/33=2) iop(6/42=6)

holoCaM-CaMKII.loop3.water3.frame324 

   0  1 
C         38.38056       57.57710       76.81517
C         37.28382       58.40256       77.41635
O         36.34492       57.85049       77.97201
H         39.34576       57.83204       77.30209
H         38.18204       56.49367       76.95174
H         38.45421       57.79667       75.72903
N         37.35031       59.75774       77.34005
C         36.33828       60.64311       77.90215
C         34.99461       60.40258       77.21820
O         34.89087       60.62948       76.02037
C         36.82294       62.09364       77.73094
C         35.91936       63.11682       78.32214
O         36.24624       64.28202       78.27171
O         34.76480       62.78129       78.91110
H         38.17486       60.17026       76.87362
H         36.25923       60.43152       78.99286
H         36.95644       62.32207       76.65024
H         37.81058       62.19554       78.23394
N         33.94404       59.86607       77.91157
C         32.71743       59.42126       77.24872
C         31.79012       60.56284       76.83104
O         30.96163       60.34718       75.95865
C         31.97602       58.35822       78.10457
C         31.10188       58.93820       79.23432
C         30.61698       57.88308       80.24994
C         29.92209       56.64257       79.66138
N         28.71244       56.97230       78.91056
H         34.09350       59.61792       78.89914
H         33.05341       58.87188       76.34021
H         32.73812       57.65954       78.51749
H         31.30540       57.76827       77.44490
H         30.22921       59.45486       78.77973
H         31.66744       59.69584       79.80241
H         29.93587       58.38198       80.97426
H         31.49412       57.51567       80.81994
H         29.65149       55.96919       80.50560
H         30.62934       56.08462       79.01004
H         28.03351       57.47734       79.52415
H         28.94585       57.55497       78.07583
H         28.27355       56.08244       78.57942
N         31.79961       61.76162       77.48853
C         30.87018       62.86555       77.21818
C         31.58553       64.16365       76.84075
O         30.90120       65.16229       76.66096
C         29.89143       63.05456       78.40599
C         30.57643       63.07541       79.73465
O         30.34923       62.17614       80.52976
O         31.53598       63.96633       80.02847
H         32.46543       61.88546       78.26383
H         30.21980       62.63346       76.34657
H         29.20357       62.17845       78.41040
H         29.26447       63.96067       78.26812
N         32.92567       64.21287       76.58214
C         33.55967       65.37948       75.98115
C         33.83466       66.55319       76.90184
O         34.31313       67.55533       76.38764
H         33.48710       63.35293       76.64449
H         32.93668       65.71708       75.12243
H         34.54327       65.07480       75.56456
N         33.60541       66.53240       78.24860
C         33.89958       67.69173       79.10131
C         35.40328       67.91807       79.34752
O         35.73660       68.81024       80.11427
C         33.14345       67.59596       80.44617
C         33.78182       66.68163       81.46015
N         34.16716       67.17157       82.66362
O         33.95269       65.50198       81.20156
H         33.16755       65.69915       78.66638
H         33.46121       68.58777       78.60687
H         32.09173       67.28994       80.25785
H         33.10689       68.61759       80.88434
H         34.03045       68.16511       82.90274
H         34.59705       66.56046       83.36884
N         36.36221       67.15873       78.74169
C         37.79040       67.31858       78.95523
C         38.36389       66.55342       80.14408
O         39.56632       66.68556       80.33127
H         36.08878       66.51927       77.99637
H         38.04203       68.40044       79.01163
H         38.32026       66.91960       78.06190
N         37.63023       65.75436       80.98939
C         38.24464       65.06136       82.13599
C         37.93474       63.56460       82.22220
O         37.08833       63.06157       81.49478
C         37.79775       65.70502       83.46355
C         38.30451       67.11235       83.63788
C         37.72980       68.18928       82.94523
C         39.36596       67.35536       84.52500
C         38.20899       69.48892       83.14137
C         39.85004       68.64949       84.71218
C         39.27308       69.72162       84.02675
O         39.74646       70.96685       84.23087
H         36.61235       65.67299       80.85110
H         39.35256       65.13927       82.07955
H         38.21279       65.09920       84.29542
H         36.69757       65.67129       83.58217
H         36.90371       68.02552       82.26888
H         39.82766       66.53895       85.06688
H         37.75144       70.31314       82.60901
H         40.67319       68.81632       85.39492
H         39.36988       71.74003       83.78813
N         38.61477       62.80351       83.14345
C         38.37239       61.39303       83.45100
C         38.12821       61.23583       84.95458
O         38.99296       61.60395       85.73978
C         39.55779       60.50210       82.97563
C         39.67667       60.58354       81.42903
C         39.34721       59.03385       83.42239
C         40.89222       59.85165       80.85822
H         39.37271       63.25860       83.67662
H         37.49449       61.03190       82.90957
H         40.49544       60.87917       83.44056
H         39.77228       61.64570       81.12143
H         38.75439       60.17199       80.95939
H         38.41226       58.61846       82.98699
H         40.19897       58.39048       83.12838
H         39.28258       58.95636       84.52762
H         40.85199       58.76240       81.05687
H         40.91427       59.98571       79.75605
H         41.82540       60.27337       81.28704
N         36.98297       60.65189       85.41614
C         36.67002       60.42091       86.82890
C         36.54132       58.92491       87.12986
O         36.80827       58.11888       86.25199
C         35.39116       61.19905       87.18402
O         34.31082       60.81272       86.37812
H         36.28512       60.34373       84.72433
H         37.48120       60.80703       87.48540
H         35.58105       62.28113       87.01815
H         35.12634       61.09976       88.25941
H         34.01357       59.92405       86.70211
N         36.17636       58.47905       88.36962
C         36.15943       57.06613       88.75691
C         35.22913       56.20809       87.91378
O         35.71525       55.27929       87.28338
C         35.77782       56.91463       90.23667
H         35.95554       59.17954       89.09384
H         37.19350       56.66920       88.64242
H         34.75714       57.30982       90.42830
H         35.80366       55.84343       90.53353
H         36.49539       57.47048       90.87559
N         33.88025       56.41973       87.88518
C         32.97169       55.54212       87.14472
C         33.28500       55.52299       85.66221
O         32.97919       54.54134       84.99881
C         31.51363       55.97370       87.34266
H         33.48970       57.20750       88.42404
H         33.08140       54.50983       87.54547
H         30.82760       55.28351       86.80506
H         31.25199       55.95464       88.42161
H         31.35710       57.00396       86.95460
N         33.83753       56.61118       85.06667
C         34.10860       56.69956       83.64111
C         35.19884       55.72541       83.23579
O         34.95103       54.86956       82.39802
C         34.46116       58.15837       83.31994
C         34.54669       58.47639       81.83197
C         34.52244       59.96570       81.67791
O         35.42677       60.65783       82.09310
O         33.43665       60.54908       81.16472
H         34.02369       57.44087       85.65126
H         33.16756       56.46540       83.09206
H         35.39297       58.46761       83.83480
H         33.61920       58.76229       83.73083
H         33.64432       58.07254       81.33205
H         35.44299       58.02460       81.35516
N         36.43103       55.78674       83.80921
C         37.49469       54.86475       83.47934
H         38.39794       55.10223       84.08234
H         37.18069       53.82481       83.71099
H         37.75295       54.94905       82.40321
H         36.62187       56.50496       84.51564
Ca        33.13924       62.76171       81.00272
O         32.19391       61.48530       83.73854
H         32.06785       62.23303       84.37412
H         33.11389       61.16725       83.91567
O         31.96608       64.73323       83.21934
H         31.43876       65.51110       83.52853
H         31.33944       64.21889       82.65222
O         34.79292       63.77576       84.02683
H         34.77130       64.54273       84.65220
H         34.70769       62.98366       84.61264

Ca 1.0



