%chk=holoCaM.loop1.water2.frame176.chk
%nprocshared=20
%mem=10GB
%nosave
#b3lyp/svp scf=(tight,noincore,xqc) Test 
#IOP(5/87=12) Density=Current Pop=(MK,readradii) iop(6/33=2) iop(6/42=6)

holoCaM.loop1.water2.frame176 

   0  1 
C          3.45973      -22.96763      111.58074
C          4.27721      -23.35753      112.77152
O          4.61330      -24.52323      112.91467
H          2.52012      -22.49113      111.93159
H          4.02071      -22.24625      110.95097
H          3.19983      -23.86018      110.97447
N          4.58493      -22.42177      113.70677
C          5.31036      -22.72129      114.92585
C          4.30488      -22.77988      116.07449
O          3.73224      -21.76442      116.44452
C          6.35596      -21.62629      115.11629
C          7.20682      -21.77632      116.31164
O          7.27048      -22.92195      117.01357
O          7.83489      -20.80307      116.66547
H          4.23210      -21.46115      113.57584
H          5.82644      -23.70596      114.83546
H          5.81257      -20.66356      115.22652
H          7.02706      -21.54970      114.23330
N          3.97637      -23.99055      116.60273
C          2.87128      -24.23535      117.52408
C          3.26480      -24.06630      118.99180
O          2.38451      -23.92145      119.82863
C          2.30618      -25.64789      117.20585
C          1.09292      -26.10201      118.02368
C         -0.06556      -25.09950      117.94822
C         -1.28832      -25.58875      118.72824
N         -2.37876      -24.61663      118.64107
H          4.38448      -24.79928      116.13619
H          2.08675      -23.48663      117.29494
H          3.10591      -26.41490      117.33106
H          2.02029      -25.65173      116.12909
H          1.39769      -26.26308      119.07899
H          0.76341      -27.08332      117.61183
H         -0.33992      -24.93259      116.88476
H          0.25072      -24.13355      118.39183
H         -1.00818      -25.73285      119.79566
H         -1.63136      -26.56402      118.31801
H         -3.16461      -24.92634      119.25648
H         -2.05544      -23.67343      118.95862
H         -2.72332      -24.55485      117.65534
N          4.56853      -24.09121      119.37310
C          5.04593      -23.90351      120.74425
C          6.02505      -22.73665      120.86770
O          6.45152      -22.46093      121.98035
C          5.58780      -25.23607      121.28920
C          6.55815      -25.96666      120.38628
O          7.14715      -25.35702      119.29961
O          6.76236      -27.14103      120.64814
H          5.25932      -24.28483      118.64337
H          4.20149      -23.63179      121.41930
H          4.69544      -25.89274      121.41051
H          6.01634      -25.12213      122.31424
N          6.33506      -21.93194      119.80919
C          7.01602      -20.65351      119.97062
C          8.46915      -20.74792      120.39130
O          8.81414      -20.39964      121.51109
H          5.95546      -22.14694      118.87928
H          6.43492      -20.04038      120.68635
H          6.99530      -20.10462      119.00322
N          9.37738      -21.15187      119.46920
C         10.83042      -21.22298      119.63170
C         11.60414      -20.80568      118.35149
O         12.81928      -20.68792      118.42636
C         11.21507      -22.65860      120.04705
C         10.46377      -23.67990      119.25292
O         10.42474      -23.60002      118.04530
O          9.74363      -24.62773      119.87706
H          8.97343      -21.48736      118.59877
H         11.16463      -20.51985      120.42849
H         10.94796      -22.83662      121.10929
H         12.31000      -22.80672      119.93674
N         10.98627      -20.55507      117.15911
C         11.64010      -20.16088      115.92506
C         12.20662      -21.33786      115.18366
O         13.07513      -21.15992      114.34249
H          9.99253      -20.67532      117.06643
H         12.36512      -19.34434      116.09775
H         10.85265      -19.76627      115.24101
N         11.66769      -22.56667      115.38367
C         12.00648      -23.76309      114.65761
C         10.66143      -24.49578      114.30836
O         10.07944      -25.22244      115.40332
C         13.16288      -24.59029      115.36324
C         14.55389      -24.07345      114.97780
O         13.12985      -24.59807      116.76723
H         10.87397      -22.65087      116.02142
H         12.42107      -23.46031      113.66960
H         13.11716      -25.64714      115.02376
H         12.44488      -23.98404      117.09871
H         14.74797      -24.25010      113.89911
H         14.65743      -22.99439      115.20484
H         15.33445      -24.61780      115.55648
N         10.92588      -25.38853      113.16214
C          9.79344      -26.17570      112.66422
C         10.27115      -27.62147      112.74003
O         11.32500      -27.94328      112.21029
C          9.31422      -25.78831      111.21100
C          9.16314      -24.26294      110.94320
C          7.97283      -26.47832      110.87576
C          8.15666      -23.51328      111.82177
H         11.47242      -24.95424      112.38259
H          8.91205      -26.00932      113.31915
H         10.07239      -26.14125      110.47755
H          8.85155      -24.12452      109.88175
H         10.15106      -23.77283      111.04015
H          8.06388      -27.58249      110.86028
H          7.20614      -26.19646      111.62309
H          7.59276      -26.15268      109.88229
H          8.43360      -23.57975      112.89118
H          8.15578      -22.44065      111.52908
H          7.12544      -23.89523      111.68120
N          9.53699      -28.53657      113.40859
C          9.85557      -29.94914      113.59819
C          8.98594      -30.76697      112.66881
O          8.23247      -30.18481      111.90795
C          9.58024      -30.31755      115.07484
C         10.58819      -29.62963      116.01057
O          8.25189      -29.97966      115.37419
H          8.64472      -28.21712      113.75911
H         10.91114      -30.16820      113.33628
H          9.67766      -31.40462      115.27487
H          8.24244      -29.09713      115.81595
H         11.56704      -30.14735      115.95229
H         10.72913      -28.57239      115.71131
H         10.24078      -29.66607      117.06435
N          9.06741      -32.12587      112.63640
C          8.28246      -32.93921      111.70578
C          6.78731      -32.77323      111.95315
O          6.04499      -32.55120      111.00768
C          8.67000      -34.43928      111.76280
C         10.14568      -34.67666      111.40414
O          8.39342      -34.97820      113.02929
H          9.72990      -32.58823      113.27584
H          8.50703      -32.60237      110.66775
H          8.04552      -34.95190      110.99444
H          8.55282      -35.95642      112.96660
H         10.39663      -34.20540      110.43077
H         10.81991      -34.27757      112.18956
H         10.33240      -35.76859      111.31710
N          6.28877      -32.85823      113.21753
C          4.87941      -32.67417      113.57046
C          4.33828      -31.29577      113.16887
O          3.14051      -31.16207      112.95634
C          4.69294      -32.91887      115.09077
C          5.40447      -31.87753      115.98382
C          5.18321      -32.17998      117.47175
C          5.74366      -31.09981      118.41460
N          7.19732      -30.97979      118.34455
H          6.96085      -33.06362      113.96829
H          4.29176      -33.44931      113.02712
H          5.09511      -33.92883      115.32926
H          3.60954      -32.91297      115.33507
H          4.97575      -30.88217      115.76886
H          6.49266      -31.86081      115.77054
H          5.62714      -33.16654      117.72881
H          4.08903      -32.22771      117.65424
H          5.46582      -31.37678      119.45362
H          5.27692      -30.11571      118.18206
H          7.46520      -30.57003      117.43434
H          7.51893      -30.32862      119.09418
H          7.66519      -31.90573      118.46835
N          5.17848      -30.22652      113.07332
C          4.77869      -28.86757      112.69895
C          4.90487      -28.64092      111.19794
O          4.33858      -27.67904      110.69678
C          5.71072      -27.86474      113.39655
C          5.57946      -27.88290      114.92213
C          6.51930      -26.92288      115.59725
O          7.70216      -26.89958      115.32883
O          6.07881      -26.13774      116.58377
H          6.16845      -30.38783      113.29289
H          3.72320      -28.67676      112.99446
H          5.53861      -26.83757      113.03663
H          6.72743      -28.15787      113.09725
H          5.79946      -28.89689      115.29746
H          4.53917      -27.61440      115.20010
N          5.65628      -29.47242      110.42818
C          5.81990      -29.36670      108.99873
H          6.90208      -29.29442      108.75330
H          5.41979      -30.29724      108.54622
H          5.28810      -28.49394      108.57054
H          6.15353      -30.23998      110.87095
Ca         8.60622      -25.31174      117.37325
O         11.11524      -26.83914      117.39152
H         11.66142      -26.07696      117.67904
H         11.65716      -27.61941      117.65764
O          8.60565      -27.95971      118.30594
H          7.74678      -27.82763      118.76180
H          9.07886      -28.61170      118.87595

Ca 1.0



