%chk=holoCaM.loop2.water2.frame192.chk
%nprocshared=20
%mem=10GB
%nosave
#b3lyp/svp scf=(tight,noincore,xqc) Test 
#IOP(5/87=12) Density=Current Pop=(MK,readradii) iop(6/33=2) iop(6/42=6)

holoCaM.loop2.water2.frame192 

   -2  1 
C         28.93765       48.37122      106.85506
C         29.99649       48.48540      107.91438
O         30.76603       49.43324      107.88535
H         28.27471       49.26151      106.89942
H         29.40832       48.31279      105.85303
H         28.30938       47.46692      107.00515
N         30.06767       47.56365      108.91134
C         31.00059       47.65665      110.02678
C         32.44491       47.44812      109.57452
O         32.72148       46.44876      108.92567
C         30.63048       46.59711      111.08597
C         31.30533       46.82405      112.40514
O         31.12892       45.93338      113.39780
O         31.95331       47.83730      112.61069
H         29.37696       46.79656      108.91070
H         30.86530       48.65587      110.49770
H         30.87519       45.58466      110.69880
H         29.53983       46.63752      111.29503
N         33.42231       48.33338      109.92746
C         34.82595       48.21025      109.53952
C         35.77663       48.01397      110.72909
O         36.96232       47.84522      110.47745
C         35.22336       49.46679      108.75285
H         33.15598       49.13654      110.50203
H         34.96370       47.33005      108.87485
H         34.57773       49.57449      107.85501
H         35.10105       50.37429      109.38434
H         36.28040       49.40960      108.41591
N         35.35945       48.02399      112.03395
C         36.29240       47.91897      113.16952
C         35.71152       47.25855      114.43570
O         36.46795       47.09628      115.38364
C         36.85217       49.31839      113.51076
C         35.78210       50.28213      113.92646
O         34.50485       49.87839      114.01067
O         36.06427       51.44476      114.16695
H         34.37915       48.25415      112.21329
H         37.15534       47.28649      112.86458
H         37.35810       49.73234      112.61235
H         37.60510       49.24450      114.32537
N         34.41466       46.84109      114.54136
C         33.87755       46.16100      115.71440
C         33.75933       46.99350      116.98542
O         33.44443       46.40188      118.00832
H         33.78998       46.92556      113.74078
H         34.52099       45.27843      115.91738
H         32.85811       45.78343      115.48570
N         33.98991       48.33876      117.03070
C         33.98685       49.09751      118.28663
C         32.62363       49.17891      119.00011
O         32.59839       49.67575      120.11726
C         34.60728       50.50271      118.07106
C         33.79293       51.44329      117.22504
N         34.26178       52.67748      116.94013
O         32.70481       51.10493      116.79855
H         34.25363       48.82220      116.16548
H         34.68409       48.56912      118.97304
H         35.60126       50.37376      117.58868
H         34.76541       50.99150      119.05558
H         35.18576       52.98520      117.27512
H         33.69333       53.32664      116.38180
N         31.46141       48.73351      118.43357
C         30.16559       48.72219      119.11254
C         29.14425       49.67754      118.51044
O         27.98430       49.59851      118.88906
H         31.48410       48.35873      117.48047
H         30.25732       48.97932      120.18988
H         29.77136       47.68473      119.05679
N         29.51458       50.66488      117.64895
C         28.62098       51.69333      117.11604
C         28.79582       51.83754      115.61007
O         29.65032       51.17795      115.03718
C         28.97488       53.05190      117.79274
C         28.58974       53.05340      119.27155
O         30.35070       53.32987      117.68775
H         30.50673       50.75483      117.42239
H         27.55436       51.45266      117.31952
H         28.39554       53.88650      117.34101
H         30.55462       53.48010      116.72874
H         29.14249       52.27092      119.83095
H         28.82785       54.04303      119.71727
H         27.49757       52.87826      119.37835
N         28.08234       52.78050      114.92422
C         28.42790       53.19437      113.57056
C         29.27337       54.45385      113.66220
O         29.18533       55.20122      114.62740
C         27.17330       53.29921      112.62236
C         27.08749       52.03152      111.72816
C         27.17217       54.57657      111.75290
C         25.88453       51.98945      110.78102
H         27.38995       53.35082      115.43223
H         29.13181       52.45816      113.13715
H         26.26213       53.37663      113.25545
H         27.04339       51.13409      112.38006
H         28.00588       51.96488      111.10195
H         26.23036       54.67657      111.17832
H         27.22380       55.48116      112.39600
H         28.02099       54.57302      111.04266
H         24.93683       52.03868      111.35490
H         25.91703       52.81568      110.04064
H         25.90759       51.04219      110.20154
N         30.17983       54.69271      112.68038
C         31.10836       55.80989      112.64216
C         30.80248       56.63806      111.42651
O         29.85429       56.34135      110.72095
C         32.54437       55.26606      112.55325
C         32.88560       54.43511      113.74087
O         32.07224       53.41986      114.07285
O         33.93663       54.61011      114.33581
H         30.23437       54.02127      111.90437
H         31.01299       56.45502      113.54269
H         33.29798       56.07549      112.45587
H         32.62357       54.61576      111.65315
N         31.54113       57.72796      111.12847
C         31.24179       58.57444      109.98891
C         31.43819       57.86884      108.63726
O         30.48806       57.88530      107.86832
C         31.99478       59.90336      110.14382
C         31.60161       60.96426      109.14564
C         30.24910       61.28724      108.90510
C         32.60297       61.68540      108.47904
C         29.91481       62.29909      108.00345
C         32.26299       62.71156      107.59440
C         30.92077       63.01514      107.35302
H         32.30257       57.99760      111.77209
H         30.16652       58.83828      110.07260
H         33.09256       59.73467      110.15068
H         31.71540       60.30372      111.14400
H         29.44372       60.76627      109.40402
H         33.64805       61.47138      108.66451
H         28.87426       62.53369      107.81764
H         33.04250       63.27573      107.10135
H         30.65971       63.80939      106.66708
N         32.58029       57.20361      108.25847
C         32.73393       56.55158      106.95732
C         31.75855       55.39800      106.77536
O         31.24404       55.22867      105.67821
C         34.20702       56.11659      106.94249
C         34.50847       55.86674      108.40028
C         33.76221       57.01742      109.08127
H         32.59830       57.25587      106.10677
H         34.45759       55.29169      106.23947
H         34.81816       57.00357      106.66045
H         34.03075       54.90331      108.67546
H         35.58493       55.78954      108.66353
H         33.54692       56.68982      110.11450
H         34.35058       57.95897      109.07498
N         31.42813       54.58994      107.81517
C         30.49130       53.47313      107.71798
C         29.12204       54.00341      107.31759
O         28.56961       53.55806      106.32240
C         30.43381       52.72444      109.06988
C         31.82965       52.18792      109.47783
C         31.87836       51.61662      110.86027
O         30.77080       51.49500      111.60798
O         32.95664       51.30279      111.33408
H         31.83578       54.81218      108.73164
H         30.84743       52.74427      106.95563
H         29.71167       51.87990      109.01565
H         30.07238       53.43418      109.83535
H         32.57387       53.00326      109.48673
H         32.18013       51.42876      108.74794
N         28.55299       55.01043      108.03444
C         27.29953       55.65697      107.71236
H         26.60814       55.56987      108.57663
H         27.49034       56.73686      107.52624
H         26.81757       55.22324      106.81365
H         29.05943       55.37198      108.84142
Ca        32.95483       51.41933      114.15260
O         29.17867       49.30332      112.78216
H         29.06053       49.61659      111.85158
H         28.49354       48.59850      112.89235
O         30.74557       48.69732      115.18246
H         29.88511       48.64580      115.66984
H         31.07500       47.76638      115.17747

Ca 1.0



