%chk=holoCaM-CaMKII.loop3.water3.frame52.chk
%nprocshared=20
%mem=10GB
%nosave
#b3lyp/svp scf=(tight,noincore,xqc) Test 
#IOP(5/87=12) Density=Current Pop=(MK,readradii) iop(6/33=2) iop(6/42=6)

holoCaM-CaMKII.loop3.water3.frame52 

   0  1 
C         11.52160       46.67978       79.63314
C         12.09428       45.41774       79.06038
O         11.51743       44.35473       79.23824
H         10.57007       46.47834       80.16821
H         12.24923       47.12151       80.34659
H         11.32878       47.40820       78.81678
N         13.24222       45.47410       78.33576
C         13.87413       44.30266       77.74346
C         14.39677       43.36909       78.83273
O         15.24999       43.77238       79.61114
C         15.00541       44.76737       76.81492
C         15.78187       43.62507       76.25904
O         17.09005       43.55784       76.52654
O         15.24757       42.75395       75.59427
H         13.66700       46.40324       78.18282
H         13.12669       43.77315       77.10942
H         15.70739       45.41747       77.38331
H         14.57923       45.36448       75.97908
N         13.89675       42.10558       78.95072
C         14.25280       41.19706       80.03838
C         15.56597       40.46430       79.75665
O         16.52354       40.66142       80.49073
C         13.06614       40.23897       80.28698
C         13.24626       39.33164       81.50683
C         11.96591       38.51887       81.74632
C         12.09969       37.61108       82.97314
N         10.86099       36.86904       83.20793
H         13.13299       41.83646       78.31436
H         14.35539       41.79843       80.97011
H         12.87148       39.61280       79.39222
H         12.16447       40.86997       80.45805
H         13.44912       39.95872       82.40224
H         14.10577       38.64643       81.34144
H         11.74514       37.89681       80.85081
H         11.11613       39.21902       81.90913
H         12.32945       38.22952       83.86926
H         12.93554       36.89444       82.81391
H         10.63560       36.27113       82.37985
H         10.98220       36.25626       84.04619
H         10.07268       37.53327       83.38697
N         15.66844       39.58124       78.71975
C         16.87137       38.80894       78.38443
C         18.05997       39.64759       77.90831
O         19.10985       39.06378       77.67346
C         16.54136       37.70957       77.34138
C         15.95130       38.20856       76.04793
O         15.71649       39.51892       75.84547
O         15.61334       37.40172       75.19749
H         14.82050       39.40305       78.17845
H         17.19786       38.27086       79.30246
H         15.79642       37.01897       77.79391
H         17.45492       37.11434       77.12117
N         18.00883       41.00441       77.79272
C         19.18959       41.80964       77.51946
C         19.62602       41.88051       76.06522
O         20.61357       42.56350       75.83004
H         17.14618       41.50444       78.03825
H         20.02921       41.45467       78.15679
H         18.98965       42.85076       77.84684
N         18.99080       41.23906       75.03383
C         19.51907       41.31939       73.66450
C         19.39367       42.71736       73.04779
O         20.03508       42.96819       72.03774
C         18.89551       40.25749       72.73207
C         17.51327       40.61775       72.25460
N         17.23059       40.67226       70.93073
O         16.64300       40.86699       73.06722
H         18.17941       40.63675       75.23427
H         20.59666       41.05229       73.74573
H         18.87071       39.28084       73.26249
H         19.54975       40.13479       71.84231
H         17.95103       40.46357       70.22399
H         16.28342       40.91726       70.60610
N         18.54925       43.65306       73.57587
C         18.39373       45.00910       73.07102
C         16.98518       45.32484       72.58831
O         16.76827       46.46750       72.20916
H         17.98061       43.40110       74.38591
H         19.09263       45.20924       72.23035
H         18.64984       45.70912       73.89507
N         15.99734       44.38007       72.51128
C         14.67986       44.63790       71.92819
C         13.56301       44.21254       72.86717
O         13.62013       43.12138       73.41519
C         14.50019       43.87309       70.60388
C         15.52488       44.23423       69.55163
C         15.14764       44.96402       68.41042
C         16.86144       43.82052       69.68223
C         16.09062       45.27154       67.42382
C         17.79877       44.11935       68.69324
C         17.41620       44.84521       67.55805
O         18.31016       45.13215       66.59083
H         16.20205       43.41372       72.79832
H         14.55547       45.71478       71.67298
H         13.48487       44.13261       70.22568
H         14.52161       42.77484       70.76524
H         14.12553       45.29882       68.28270
H         17.18221       43.25157       70.54046
H         15.78859       45.83550       66.55033
H         18.82010       43.77961       68.80979
H         19.23106       44.83782       66.64001
N         12.46009       44.99587       73.01896
C         11.31048       44.62404       73.83921
C         10.31536       43.84025       72.99327
O          9.91610       44.33897       71.94895
C         10.60438       45.90520       74.38723
C         11.59623       46.84233       75.12114
C          9.43560       45.51688       75.32220
C         10.99443       48.22065       75.41133
H         12.39780       45.86366       72.46330
H         11.64550       44.02568       74.71764
H         10.19964       46.46486       73.51387
H         12.47979       47.03458       74.47861
H         11.95349       46.36833       76.05890
H          9.81229       44.95132       76.20303
H          8.87836       46.40285       75.68115
H          8.69635       44.88977       74.79033
H         10.67128       48.69743       74.45956
H         10.12891       48.16407       76.09923
H         11.76146       48.86929       75.88191
N          9.78996       42.66088       73.43828
C          8.68207       41.98243       72.76824
C          7.41270       42.16551       73.58334
O          7.47710       42.69096       74.68624
C          8.99769       40.49386       72.53742
O          9.15038       39.81499       73.75618
H         10.09821       42.29839       74.34866
H          8.49378       42.44957       71.77790
H          9.90690       40.38506       71.90256
H          8.17151       40.00758       71.97699
H         10.12356       39.74068       73.92841
N          6.20124       41.80203       73.07793
C          4.95399       42.02358       73.80563
C          4.91612       41.23323       75.09732
O          4.38067       41.73069       76.07768
C          3.74228       41.67656       72.94275
H          6.16410       41.39212       72.13139
H          4.87037       43.10871       74.04455
H          2.80690       41.90674       73.49798
H          3.75512       42.29513       72.01948
H          3.74822       40.60266       72.66375
N          5.49934       40.00436       75.17880
C          5.58772       39.24909       76.42186
C          6.38411       40.02855       77.45168
O          5.89613       40.24640       78.55190
C          6.26789       37.89539       76.16993
H          5.92809       39.60553       74.32916
H          4.56504       39.04070       76.80765
H          5.68140       37.30945       75.43086
H          7.29800       38.02824       75.77406
H          6.32257       37.31221       77.11416
N          7.63247       40.48090       77.14465
C          8.49572       41.18519       78.09231
C          7.94597       42.55320       78.48792
O          8.50444       43.15769       79.39298
C          9.90466       41.38481       77.49071
C         10.56797       40.05780       77.07981
C         11.86452       40.29672       76.37602
O         12.97744       39.69442       76.80903
O         11.91086       40.99395       75.37714
H          7.97954       40.28750       76.19546
H          8.58748       40.55358       79.00417
H         10.56397       41.90059       78.22329
H          9.80323       42.03912       76.59927
H          9.93768       39.49252       76.37105
H         10.72562       39.41794       77.97481
N          6.88840       43.12180       77.83956
C          6.34268       44.42206       78.16762
H          5.26769       44.31166       78.42255
H          6.86200       44.89837       79.02439
H          6.43278       45.08861       77.28381
H          6.44822       42.63458       77.05376
Ca        14.34626       40.14761       74.16834
O         12.41054       37.90589       74.13672
H         12.92998       37.70649       73.31792
H         11.52658       37.49020       73.97892
O         12.89350       40.72798       71.70879
H         13.37903       40.14346       71.07429
H         12.16626       41.13201       71.17332
O         15.32123       38.16113       71.93319
H         15.98184       38.08668       71.20032
H         15.87094       38.30415       72.74317

Ca 1.0



