%chk=holoCaM.loop4.water3.frame201.chk
%nprocshared=20
%mem=10GB
%nosave
#b3lyp/svp scf=(tight,noincore,xqc) Test 
#IOP(5/87=12) Density=Current Pop=(MK,readradii) iop(6/33=2) iop(6/42=6)

holoCaM.loop4.water3.frame201 

   -3  1 
C         18.71039       34.33405       71.07437
C         19.87125       33.38587       71.15492
O         20.32249       33.10920       72.25607
H         17.85409       33.90623       71.64008
H         18.98493       35.31196       71.51908
H         18.38490       34.49163       70.02472
N         20.37894       32.81378       70.02578
C         21.40767       31.78140       70.03958
C         22.58219       32.17386       69.14848
O         22.35985       32.52040       67.99617
C         20.77072       30.47697       69.52808
C         21.64640       29.27430       69.72863
O         21.29253       28.19305       69.28930
O         22.78191       29.35844       70.44583
H         19.96145       33.06246       69.11536
H         21.75768       31.59771       71.08004
H         20.52177       30.59050       68.45065
H         19.82842       30.27902       70.08418
N         23.86565       32.09076       69.60710
C         25.04529       32.45765       68.81805
C         25.92025       31.22972       68.50956
O         26.77110       31.32635       67.63697
C         25.89715       33.49373       69.63639
C         25.03870       34.65956       70.19934
C         27.08547       34.05701       68.82053
C         25.76367       35.43921       71.30482
H         24.01223       31.76045       70.56956
H         24.72097       32.90269       67.85131
H         26.29622       32.93872       70.51604
H         24.12773       34.26159       70.69094
H         24.71681       35.33813       69.38030
H         26.71497       34.60408       67.92695
H         27.70634       34.74730       69.42235
H         27.78391       33.26644       68.49174
H         25.09009       36.21914       71.71579
H         26.03504       34.74874       72.13452
H         26.68116       35.94017       70.94128
N         25.86720       30.10096       69.27928
C         26.90762       29.07151       69.26984
C         26.36595       27.62941       69.24266
O         27.17593       26.71325       69.21860
C         27.84096       29.31799       70.48438
C         27.11971       29.19897       71.79515
O         26.10379       30.03179       72.10250
O         27.41448       28.30072       72.56526
H         25.16845       30.04670       70.02112
H         27.55000       29.18681       68.36986
H         28.28511       30.33562       70.41930
H         28.67575       28.58397       70.44975
N         25.03093       27.34480       69.19632
C         24.47531       26.00289       69.02211
C         24.59677       25.01890       70.18402
O         24.10837       23.90910       70.02336
H         24.36233       28.12007       69.16395
H         24.92538       25.55028       68.11335
H         23.38443       26.11152       68.83346
N         25.19503       25.31870       71.37084
C         25.29247       24.36601       72.49504
C         23.95271       23.97439       73.14677
O         23.98629       23.17288       74.07088
C         26.22019       24.93384       73.59550
C         25.74383       26.25338       74.13369
O         24.62859       26.81933       73.62857
O         26.42764       26.85503       74.94284
H         25.63428       26.24519       71.46219
H         25.77196       23.43459       72.12019
H         27.22826       25.09209       73.15338
H         26.32886       24.20635       74.42960
N         22.74909       24.47701       72.74686
C         21.48278       24.10326       73.37364
C         21.25397       24.69259       74.76328
O         20.22396       24.38129       75.34771
H         22.70920       25.10519       71.93905
H         21.41163       22.99400       73.40800
H         20.64846       24.46908       72.73725
N         22.12714       25.56332       75.34616
C         21.95170       26.17781       76.66093
C         21.88530       27.69887       76.54785
O         21.95019       28.21892       75.43816
C         23.13349       25.78206       77.56980
C         23.22663       24.26849       77.79053
C         24.31049       23.95583       78.79065
N         25.37505       23.19423       78.45086
O         24.22296       24.39616       79.92785
H         22.97375       25.81709       74.83740
H         21.00628       25.83593       77.13863
H         23.00247       26.25781       78.56256
H         24.08747       26.15196       77.13006
H         23.42953       23.76447       76.82116
H         22.26247       23.88585       78.18937
H         25.47223       22.81224       77.49941
H         26.10853       22.98866       79.14560
N         21.76950       28.48067       77.66421
C         21.70559       29.93859       77.63819
C         22.93850       30.51825       78.31985
O         23.09206       30.35463       79.52475
C         20.40211       30.42482       78.34267
C         20.30479       31.95841       78.40300
C         19.15134       29.86968       77.64829
H         21.72625       28.02811       78.59103
H         21.68941       30.30100       76.58664
H         20.40237       30.04774       79.39088
H         21.14304       32.37850       78.98880
H         20.31296       32.39898       77.38403
H         19.37193       32.26524       78.92259
H         19.16015       28.75991       77.64906
H         18.23909       30.19805       78.19244
H         19.09285       30.23208       76.60013
N         23.85901       31.22383       77.60101
C         25.00219       31.91367       78.20371
C         24.51642       33.12735       78.98166
O         23.34631       33.45795       78.90160
C         25.97148       32.35034       77.07091
C         27.26235       33.01675       77.46846
N         28.13757       32.40911       78.30074
O         27.54573       34.10274       76.98902
H         23.73731       31.27551       76.57814
H         25.53084       31.20320       78.87632
H         25.42715       33.00558       76.35711
H         26.28026       31.44984       76.53586
H         27.93238       31.48380       78.70191
H         29.02734       32.86972       78.54192
N         25.36845       33.85094       79.75364
C         24.99715       35.11802       80.37932
C         24.75571       36.18016       79.31293
O         23.72631       36.83851       79.36106
C         26.02208       35.56767       81.44663
C         27.45922       35.68072       81.00316
C         27.97732       36.90234       80.54802
C         28.31244       34.56676       81.09810
C         29.32254       37.00004       80.17513
C         29.65065       34.66412       80.71859
C         30.16153       35.87803       80.25438
O         31.45791       35.95473       79.89438
H         26.31784       33.48851       79.87701
H         24.05446       34.98241       80.95779
H         25.98614       34.83716       82.28496
H         25.68902       36.53077       81.89308
H         27.34211       37.77707       80.48427
H         27.94233       33.61808       81.46783
H         29.71071       37.94720       79.82387
H         30.29037       33.79339       80.79045
H         31.85400       36.77560       79.57041
N         25.63468       36.35871       78.28170
C         25.42048       37.31639       77.19000
C         24.17220       37.01350       76.34576
O         23.85261       37.82137       75.48449
C         26.64451       37.39385       76.24171
C         27.94515       37.78271       76.96169
C         29.06116       38.00463       75.98146
O         30.07046       37.31975       76.03017
O         28.96274       38.97961       75.05705
H         26.48540       35.78726       78.28638
H         25.28708       38.32103       77.64855
H         26.43161       38.17215       75.47506
H         26.78877       36.42336       75.71666
H         28.23880       36.97711       77.66248
H         27.79599       38.72101       77.53659
N         23.40604       35.90191       76.54663
C         22.16691       35.61073       75.83119
C         20.96406       35.81806       76.74127
O         19.91412       36.19244       76.23707
C         22.18497       34.16282       75.30436
C         23.28802       33.94378       74.25868
C         23.37976       32.51235       73.80773
O         24.23184       32.19638       72.99634
O         22.55434       31.56773       74.29740
H         23.69088       35.22560       77.25770
H         22.03382       36.30090       74.96801
H         21.20391       33.92076       74.83830
H         22.34019       33.47371       76.16475
H         24.27134       34.22790       74.68570
H         23.08624       34.58662       73.37418
N         21.03596       35.62707       78.08880
C         19.91711       35.86448       78.97138
H         19.07120       35.19901       78.70245
H         20.21762       35.65508       80.02122
H         19.60189       36.92715       78.90225
H         21.90815       35.31653       78.52299
Ca        24.49796       29.00097       73.25495
O         26.02976       29.59656       75.24701
H         25.53816       29.10485       75.95228
H         26.98461       29.38330       75.38450
O         21.47321       27.33517       72.31751
H         20.53526       27.31667       72.63012
H         21.43961       26.87786       71.44134
O         20.41237       29.85372       73.33092
H         19.89165       29.41283       74.04793
H         20.17114       30.80891       73.40602

Ca 1.0



