%chk=holoCaM-CaMKII.loop1.water2.frame52.chk
%nprocshared=20
%mem=10GB
%nosave
#b3lyp/svp scf=(tight,noincore,xqc) Test 
#IOP(5/87=12) Density=Current Pop=(MK,readradii) iop(6/33=2) iop(6/42=6)

holoCaM-CaMKII.loop1.water2.frame52 

   0  1 
C          2.27179       54.83208       92.00704
C          1.24054       54.83776       93.09007
O          1.54358       54.46308       94.21369
H          3.24690       54.47082       92.39527
H          1.93467       54.16365       91.18785
H          2.40000       55.86202       91.61110
N         -0.01403       55.28295       92.81872
C         -1.05709       55.34711       93.82784
C         -1.66504       53.94921       94.00605
O         -2.37922       53.46182       93.14164
C         -2.06410       56.41637       93.39857
C         -3.21952       56.65558       94.29833
O         -4.21952       57.12672       93.79188
O         -3.30592       56.19893       95.55408
H         -0.21095       55.63582       91.86830
H         -0.60375       55.71381       94.77816
H         -2.48810       56.08639       92.42670
H         -1.55461       57.39165       93.23647
N         -1.31181       53.22781       95.09841
C         -1.67300       51.84115       95.41133
C         -3.15268       51.64978       95.69703
O         -3.72561       50.64406       95.30236
C         -0.89853       51.43294       96.68954
C         -0.88217       49.93178       96.95024
C         -0.01051       49.60137       98.17261
C          0.31435       48.10455       98.18292
N          1.22564       47.76002       99.27153
H         -0.64595       53.69443       95.71735
H         -1.33537       51.18182       94.58113
H         -1.31021       51.95465       97.57880
H          0.16284       51.73176       96.54788
H         -0.43112       49.46755       96.04845
H         -1.90606       49.52510       97.09666
H         -0.52290       49.91608       99.11129
H          0.95349       50.15209       98.10459
H          0.81054       47.85136       97.21877
H         -0.62133       47.51012       98.26626
H          1.47511       46.74783       99.18946
H          2.10369       48.32490       99.19913
H          0.76724       47.92908      100.19519
N         -3.79013       52.55786       96.47926
C         -5.14081       52.42761       97.01732
C         -6.11102       53.44349       96.42225
O         -7.27225       53.43129       96.80843
C         -5.10897       52.46774       98.57502
C         -4.37273       53.59698       99.26821
O         -3.62625       54.49264       98.60419
O         -4.37767       53.63923      100.48642
H         -3.25691       53.40152       96.69931
H         -5.57178       51.43645       96.74785
H         -4.61769       51.53634       98.92955
H         -6.15565       52.45106       98.95009
N         -5.74599       54.28163       95.41209
C         -6.68062       55.15397       94.72025
C         -7.21528       56.27444       95.58638
O         -8.42583       56.39433       95.70644
H         -4.78568       54.24827       95.04672
H         -7.51323       54.54394       94.30363
H         -6.16310       55.61323       93.85546
N         -6.36639       57.15770       96.18891
C         -6.79777       58.31353       96.96812
C         -6.30930       59.65598       96.40440
O         -6.79985       60.66957       96.88201
C         -6.38907       58.15810       98.45368
C         -4.95508       57.77648       98.69823
O         -4.04103       58.43118       98.24171
O         -4.67581       56.72559       99.48622
H         -5.36399       57.00017       96.09852
H         -7.90609       58.38410       96.94361
H         -7.01017       57.36342       98.91650
H         -6.59830       59.10819       98.98760
N         -5.35526       59.76917       95.43295
C         -4.89861       61.04750       94.89454
C         -3.50059       61.41562       95.36000
O         -3.02001       62.46735       94.96258
H         -4.89054       58.93163       95.08110
H         -5.57185       61.87562       95.20286
H         -4.92478       60.99896       93.78396
N         -2.81398       60.64039       96.24793
C         -1.51382       60.99085       96.81073
C         -0.59473       59.77273       96.89357
O         -1.03914       58.65073       96.69146
C         -1.68667       61.66049       98.20400
C         -2.27420       63.07478       98.11220
O         -2.46590       60.87221       99.06941
H         -3.25956       59.79191       96.59520
H         -1.00161       61.71127       96.13757
H         -0.68151       61.78503       98.66014
H         -3.40223       60.87994       98.73715
H         -1.64816       63.70064       97.44178
H         -3.31512       63.05737       97.72810
H         -2.27760       63.54229       99.12055
N          0.74055       59.95461       97.12674
C          1.73074       58.87822       97.15880
C          2.56431       59.01034       98.44335
O          3.19653       60.03925       98.63661
C          2.64445       58.97273       95.89223
C          1.81839       58.91236       94.57477
C          3.69368       57.84137       95.89768
C          2.63315       59.31672       93.33898
H          1.08784       60.92147       97.21750
H          1.22687       57.88543       97.12896
H          3.16232       59.95650       95.92764
H          0.97561       59.63177       94.61758
H          1.39093       57.89421       94.43420
H          3.19378       56.84843       95.87178
H          4.38493       57.90923       95.03619
H          4.32346       57.89887       96.80171
H          3.50103       58.65210       93.16350
H          1.98904       59.27413       92.43546
H          2.99607       60.36140       93.45506
N          2.62905       57.99335       99.35034
C          3.48806       57.98646      100.53566
C          4.89301       57.56298      100.15399
O          5.12523       57.19795       99.01929
C          2.94418       57.00817      101.62714
C          1.64740       57.50534      102.27863
O          2.79580       55.70757      101.11398
H          2.14962       57.13257       99.11635
H          3.54030       59.00887      100.96681
H          3.67108       56.93380      102.46323
H          1.84077       55.53424      100.91630
H          0.85236       57.65075      101.52003
H          1.29989       56.75411      103.02280
H          1.83891       58.46022      102.80876
N          5.89337       57.58750      101.07148
C          7.24047       57.08138      100.80726
C          7.19762       55.57319      100.59304
O          7.77372       55.08797       99.62964
C          8.19581       57.45193      101.96288
C          8.37204       58.97569      102.05110
O          7.70745       56.95277      103.18233
H          5.67599       57.96506      102.00535
H          7.66059       57.56053       99.89296
H          9.19305       57.00635      101.73281
H          8.49376       56.77485      103.76045
H          9.08815       59.23158      102.85832
H          8.77314       59.36895      101.09131
H          7.40897       59.48649      102.26161
N          6.46104       54.78609      101.42790
C          6.26753       53.34508      101.25925
C          5.78206       53.01160       99.85220
O          6.38612       52.17062       99.20122
C          5.24209       52.84025      102.30216
C          5.83441       52.80140      103.72503
C          4.81099       52.30463      104.76256
C          3.77692       53.36142      105.19809
N          4.39465       54.43022      105.99090
H          5.95265       55.25629      102.19249
H          7.22809       52.80392      101.41617
H          4.95011       51.79683      102.04976
H          4.32763       53.47111      102.25668
H          6.26579       53.77399      104.03738
H          6.66942       52.06831      103.69651
H          5.34721       51.97241      105.67709
H          4.29010       51.41333      104.34865
H          3.02730       52.84854      105.84021
H          3.23610       53.79030      104.32685
H          4.94764       54.02066      106.77994
H          5.01397       55.02820      105.40038
H          3.64486       55.03348      106.39914
N          4.71037       53.65314       99.31597
C          4.19282       53.41701       97.96828
C          5.25895       53.68264       96.91939
O          5.59349       52.77813       96.16639
C          2.94815       54.31440       97.72035
C          1.74206       53.77370       98.50952
C          0.48998       54.60431       98.40945
O          0.39667       55.82594       98.94403
O         -0.50844       54.12280       97.92857
H          4.26080       54.36684       99.89611
H          3.88380       52.35140       97.86854
H          2.67914       54.30345       96.64269
H          3.18852       55.36311       97.99890
H          1.98576       53.65229       99.58071
H          1.52588       52.76569       98.10043
N          5.83083       54.90676       96.81062
C          6.83172       55.23439       95.82341
H          7.72728       54.59223       95.95603
H          6.41300       55.10148       94.80418
H          7.13411       56.29728       95.94555
H          5.53865       55.64048       97.45205
Ca        -2.35636       56.01723       97.54421
O         -1.58662       55.60136      100.99113
H         -1.17463       54.85384      101.48836
H         -2.43916       55.23948      100.65254
O         -1.37599       58.28390       99.93692
H         -1.64911       58.07058      100.86284
H         -1.02480       59.20420      100.00686

Ca 1.0



