%chk=holoCaM.loop1.water2.frame218.chk
%nprocshared=20
%mem=10GB
%nosave
#b3lyp/svp scf=(tight,noincore,xqc) Test 
#IOP(5/87=12) Density=Current Pop=(MK,readradii) iop(6/33=2) iop(6/42=6)

holoCaM.loop1.water2.frame218 

   0  1 
C         26.18101       60.51504       30.98084
C         25.75845       59.15466       31.41027
O         24.70927       59.04272       32.03041
H         27.13807       60.47523       30.42331
H         25.39411       60.94560       30.32677
H         26.30471       61.14875       31.88241
N         26.50827       58.05867       31.09888
C         26.07453       56.73434       31.48125
C         26.10824       56.61219       33.00950
O         27.17843       56.57106       33.59929
C         26.90837       55.64516       30.77192
C         26.23359       54.32245       30.88947
O         26.74781       53.32301       30.42918
O         25.02770       54.27798       31.47483
H         27.36445       58.16847       30.53553
H         25.03060       56.64421       31.09594
H         27.93671       55.61196       31.19184
H         26.97274       55.86328       29.68429
N         24.94125       56.67581       33.70284
C         24.81846       56.77946       35.15538
C         25.28708       55.52974       35.89187
O         25.98487       55.67113       36.88655
C         23.34562       57.11837       35.50844
C         23.07672       57.51324       36.97200
C         23.83349       58.78472       37.39231
C         23.43756       59.23471       38.80297
N         24.19190       60.42493       39.19708
H         24.09017       56.78818       33.14346
H         25.43430       57.64570       35.47277
H         22.69655       56.25546       35.25344
H         23.02424       57.98135       34.88179
H         23.32795       56.67258       37.65255
H         21.98516       57.71419       37.05839
H         23.60262       59.60717       36.67914
H         24.92572       58.59340       37.38195
H         23.64200       58.41543       39.52690
H         22.34868       59.46460       38.82738
H         25.21624       60.21251       39.20678
H         24.00275       61.21013       38.53220
H         23.89866       60.71576       40.15738
N         24.94439       54.27896       35.46049
C         25.33585       53.04208       36.14941
C         26.40477       52.24530       35.39078
O         26.82321       51.21562       35.90303
C         24.09513       52.18333       36.53462
C         23.21643       51.70250       35.40938
O         22.25665       50.98919       35.64605
O         23.42675       52.09829       34.15521
H         24.41189       54.21293       34.58412
H         25.82299       53.29318       37.11820
H         23.45271       52.77463       37.22234
H         24.44944       51.28785       37.08954
N         26.97165       52.69988       34.23302
C         28.13305       52.07493       33.60839
C         27.87377       50.69333       33.05415
O         28.53644       49.75863       33.48309
H         26.64517       53.58375       33.82022
H         28.96066       52.03360       34.35313
H         28.47864       52.71060       32.76626
N         26.94001       50.49365       32.07919
C         26.66018       49.17880       31.49578
C         26.74056       49.13168       29.95747
O         26.62262       48.03444       29.43022
C         25.29163       48.68444       32.01890
C         24.12819       49.53665       31.61340
O         22.90170       49.27690       32.10029
O         24.28077       50.46449       30.84584
H         26.37484       51.30184       31.79176
H         27.41031       48.44538       31.86286
H         25.33529       48.68133       33.12946
H         25.09443       47.64784       31.67469
N         26.90720       50.24255       29.16978
C         26.99462       50.19711       27.70734
C         25.76719       50.75852       26.98945
O         25.72601       50.67304       25.77076
H         26.96715       51.16328       29.60705
H         27.09488       49.14628       27.36321
H         27.91105       50.73412       27.37945
N         24.70144       51.26276       27.67201
C         23.39131       51.55155       27.08188
C         22.76205       52.78510       27.72277
O         22.80457       52.91981       28.93824
C         22.45176       50.32159       27.28284
C         22.59512       49.30729       26.14977
O         22.71115       49.65699       28.48864
H         24.76043       51.29146       28.69348
H         23.45344       51.74621       25.98837
H         21.38394       50.63683       27.24889
H         22.56930       50.31858       29.20179
H         22.29938       49.78016       25.18826
H         23.63274       48.92577       26.07132
H         21.90993       48.45106       26.33231
N         22.06496       53.67851       26.95274
C         21.39482       54.86204       27.48758
C         19.87636       54.67016       27.41667
O         19.31963       54.57828       26.33183
C         21.85527       56.13301       26.70912
C         23.39398       56.33780       26.73076
C         21.14095       57.40466       27.19198
C         24.01359       56.50700       28.12375
H         21.97171       53.49452       25.94207
H         21.66399       54.99651       28.55561
H         21.56691       55.99901       25.64237
H         23.63708       57.24131       26.12870
H         23.88629       55.47326       26.23727
H         21.44603       58.27637       26.57561
H         20.04325       57.29898       27.08953
H         21.38165       57.62434       28.24555
H         25.10529       56.67744       28.01647
H         23.58809       57.37916       28.65972
H         23.87277       55.59362       28.73612
N         19.15590       54.58550       28.57314
C         17.70436       54.41907       28.66715
C         16.97624       55.69115       28.25619
O         17.60937       56.67197       27.90698
C         17.28593       54.05943       30.13294
C         17.89466       52.74145       30.62156
O         17.57003       55.10894       31.02450
H         19.68386       54.61154       29.44389
H         17.38927       53.57460       28.01635
H         16.19139       53.89209       30.18044
H         18.51515       55.03815       31.30762
H         17.54126       52.52592       31.65303
H         17.59002       51.90656       29.95719
H         18.99704       52.81189       30.63777
N         15.61979       55.75217       28.33552
C         14.84762       56.97735       28.13890
C         15.23347       58.04575       29.16432
O         15.20056       59.22279       28.83430
C         13.32795       56.67384       28.24691
C         12.86811       55.76011       27.09673
O         13.04810       56.07600       29.48988
H         15.11455       54.89386       28.59636
H         15.03877       57.38476       27.12133
H         12.76792       57.63358       28.16582
H         12.06579       55.94087       29.54027
H         11.77734       55.56725       27.17336
H         13.06418       56.25243       26.12067
H         13.39233       54.78236       27.11286
N         15.53141       57.70350       30.44918
C         15.79480       58.67347       31.51317
C         17.15675       59.32318       31.33876
O         17.25105       60.54091       31.28071
C         15.71813       57.99569       32.90744
C         14.43213       57.17006       33.14078
C         13.13306       57.95212       32.90149
C         11.91507       57.03374       33.06020
N         10.67497       57.75872       32.78929
H         15.51873       56.70352       30.68470
H         15.00478       59.45523       31.49848
H         15.79378       58.78802       33.68507
H         16.57482       57.30111       33.04857
H         14.44738       56.77920       34.18084
H         14.43460       56.28592       32.47187
H         13.11258       58.34313       31.86288
H         13.07215       58.80438       33.61213
H         11.88752       56.61839       34.09130
H         11.99983       56.18631       32.34214
H         10.68468       58.13567       31.81316
H          9.86758       57.10185       32.88724
H         10.56234       58.54375       33.47056
N         18.25993       58.53162       31.24040
C         19.63337       59.00035       31.06220
C         19.71155       59.90393       29.84197
O         20.22520       61.00901       29.94898
C         20.58461       57.77596       30.93217
C         20.63562       56.93754       32.23254
C         21.40721       55.65151       32.07918
O         21.10788       54.84613       31.22050
O         22.36604       55.32114       32.95255
H         18.09355       57.51891       31.25077
H         19.96179       59.58882       31.94810
H         21.61716       58.11231       30.69002
H         20.21251       57.13638       30.10258
H         19.61467       56.65086       32.54285
H         21.07258       57.54494       33.05438
N         19.14894       59.52460       28.66537
C         19.12091       60.37489       27.49551
H         18.60743       61.33159       27.73270
H         20.15362       60.58001       27.14649
H         18.55859       59.87184       26.67892
H         18.68396       58.61440       28.61390
Ca        23.66134       52.67482       32.05126
O         20.74190       50.93131       30.65220
H         20.79561       49.95312       30.51663
H         20.17148       51.02093       31.45163
O         20.14129       52.79999       33.22828
H         19.58356       53.32550       33.85304
H         21.05515       52.85789       33.60009

Ca 1.0



