%chk=holoCaM-CaMKII.loop3.water2.frame320.chk
%nprocshared=20
%mem=10GB
%nosave
#b3lyp/svp scf=(tight,noincore,xqc) Test 
#IOP(5/87=12) Density=Current Pop=(MK,readradii) iop(6/33=2) iop(6/42=6)

holoCaM-CaMKII.loop3.water2.frame320 

   0  1 
C         51.04723       38.48410       75.89080
C         51.00165       39.08341       77.26853
O         49.92314       39.40816       77.74357
H         52.08759       38.22944       75.59330
H         50.44918       37.54843       75.87593
H         50.63399       39.19757       75.14962
N         52.14746       39.22255       77.98703
C         52.18460       39.70664       79.36117
C         51.79602       41.17806       79.44181
O         52.36979       41.99042       78.72964
C         53.59047       39.45513       79.94008
C         53.67880       39.62250       81.43027
O         54.81983       39.29374       82.05686
O         52.72675       40.00822       82.08509
H         53.02965       38.90657       77.55383
H         51.48363       39.08366       79.96116
H         54.33930       40.09523       79.42971
H         53.85564       38.39555       79.74216
N         50.82551       41.58336       80.31012
C         50.33253       42.95635       80.41253
C         51.45179       43.94741       80.71327
O         51.57815       44.91456       79.97525
C         49.18988       43.02385       81.45713
C         48.32433       44.29143       81.32428
C         47.07586       44.20215       82.22150
C         46.07031       45.32083       81.90428
N         44.85518       45.18033       82.70868
H         50.39466       40.86629       80.91353
H         49.88060       43.21672       79.42848
H         49.58145       42.90001       82.49104
H         48.50735       42.17161       81.24320
H         47.97792       44.35029       80.26899
H         48.90823       45.20874       81.55608
H         47.37467       44.23748       83.29203
H         46.56263       43.23401       82.03009
H         45.79055       45.26082       80.82795
H         46.52984       46.31579       82.09135
H         44.41334       44.24725       82.53693
H         45.08044       45.28153       83.72447
H         44.17346       45.92472       82.43467
N         52.33369       43.74393       81.73859
C         53.44386       44.65925       82.03456
C         54.80634       44.07717       81.68194
O         55.78754       44.79437       81.82492
C         53.38113       45.12870       83.50747
C         53.55499       44.04521       84.53769
O         53.34840       44.29844       85.71321
O         53.87697       42.78987       84.19028
H         52.23024       42.88756       82.30101
H         53.34972       45.57261       81.40905
H         52.38058       45.58610       83.66228
H         54.14944       45.90802       83.70070
N         54.95777       42.81112       81.19401
C         56.24756       42.26465       80.80311
C         57.21454       42.26991       81.95718
O         58.24882       42.91363       81.85117
H         54.13422       42.21070       81.07161
H         56.65619       42.86738       79.96224
H         56.12461       41.22241       80.44272
N         56.93218       41.58495       83.10101
C         57.79003       41.61645       84.28051
C         58.37874       40.25538       84.61943
O         59.12436       40.18191       85.58725
C         57.00364       42.19817       85.47364
C         56.00924       41.23034       86.07928
N         56.09416       40.90302       87.38794
O         55.12587       40.73661       85.39670
H         56.05700       41.04989       83.14419
H         58.64521       42.30151       84.09587
H         56.48555       43.12624       85.14768
H         57.73046       42.48990       86.26149
H         56.82372       41.30454       87.99419
H         55.41393       40.25370       87.80018
N         58.10490       39.13964       83.88034
C         58.66775       37.83382       84.17796
C         57.62099       36.77116       84.43543
O         58.02574       35.63538       84.63194
H         57.49699       39.20524       83.05129
H         59.33866       37.86724       85.06275
H         59.27712       37.51539       83.30508
N         56.27517       37.02966       84.42399
C         55.27894       35.97265       84.61331
C         53.87596       36.41817       84.22034
O         53.57724       37.60329       84.21983
C         55.33939       35.37286       86.04300
C         55.10556       36.37635       87.15361
C         53.81230       36.83844       87.45296
C         56.18833       36.83331       87.92862
C         53.60882       37.73336       88.51058
C         55.98302       37.73847       88.97397
C         54.69382       38.18815       89.27223
O         54.51190       39.05946       90.28576
H         55.95271       37.98424       84.22180
H         55.53356       35.16915       83.88620
H         56.34500       34.92949       86.18344
H         54.63160       34.52366       86.15754
H         52.95894       36.49124       86.88492
H         57.19611       36.49618       87.72047
H         52.60838       38.07127       88.74356
H         56.82731       38.09031       89.55418
H         53.63830       39.40503       90.51882
N         52.97683       35.47753       83.80881
C         51.63162       35.77610       83.32809
C         50.64654       35.11899       84.27392
O         50.76034       33.92661       84.52171
C         51.44572       35.26837       81.86316
C         52.49174       35.92663       80.92538
C         50.01262       35.57578       81.37039
C         52.47426       35.38732       79.49091
H         53.26861       34.48783       83.81176
H         51.45008       36.87208       83.31848
H         51.60153       34.16694       81.84733
H         53.51285       35.73799       81.31867
H         52.32601       37.02219       80.90639
H         49.25505       35.09897       82.02474
H         49.83080       36.67266       81.35948
H         49.83519       35.17632       80.35261
H         53.27560       35.88090       78.90092
H         52.66235       34.29255       79.49187
H         51.51413       35.59603       78.97867
N         49.63332       35.84616       84.82143
C         48.68111       35.30622       85.78530
C         47.31337       35.12509       85.15024
O         47.16295       35.37876       83.96806
C         48.62585       36.24975       86.99873
O         49.89400       36.36627       87.58649
H         49.51743       36.82904       84.53193
H         48.99669       34.29865       86.13367
H         47.89055       35.90603       87.75892
H         48.29286       37.25982       86.67410
H         49.99297       35.60110       88.21087
N         46.27538       34.63428       85.88648
C         44.94074       34.35531       85.35668
C         44.27122       35.58960       84.78368
O         43.80293       35.53359       83.65538
C         44.05429       33.77305       86.46311
H         46.45353       34.41674       86.87818
H         45.01820       33.58253       84.55877
H         44.50892       32.83954       86.85792
H         43.94012       34.49551       87.29952
H         43.04887       33.52755       86.05899
N         44.18895       36.74108       85.50678
C         43.55799       37.96244       85.00876
C         44.17421       38.39743       83.69438
O         43.45167       38.62653       82.73472
C         43.71071       39.08862       86.03979
H         44.61953       36.75336       86.44485
H         42.46983       37.78654       84.85846
H         43.23123       38.79466       86.99728
H         44.78338       39.30797       86.23346
H         43.21954       40.01506       85.67198
N         45.52349       38.49531       83.58359
C         46.21767       38.89999       82.36477
C         45.87885       37.99073       81.19524
O         45.73462       38.48298       80.08485
C         47.73798       38.89855       82.59646
C         48.14089       39.89989       83.69570
C         49.61512       39.94939       83.91523
O         50.37941       39.26173       83.25837
O         50.10731       40.80776       84.82042
H         46.07853       38.23843       84.41278
H         45.92318       39.93983       82.09601
H         48.24680       39.19063       81.64966
H         48.07315       37.87575       82.87507
H         47.67648       39.65109       84.66924
H         47.80729       40.91769       83.39845
N         45.70531       36.65521       81.37714
C         45.35847       35.75348       80.30326
H         44.40640       36.07427       79.82991
H         46.17055       35.73524       79.54758
H         45.22162       34.72673       80.70721
H         45.79251       36.26446       82.31780
Ca        52.25742       41.31224       84.55896
O         51.24643       39.20612       86.90183
H         50.62056       39.81530       87.36830
H         50.66363       38.58157       86.40330
O         52.93370       41.46108       87.78030
H         53.56098       42.17433       87.50323
H         52.20284       41.94102       88.24375

Ca 1.0



