%chk=holoCaM.loop4.water3.frame66.chk
%nprocshared=20
%mem=10GB
%nosave
#b3lyp/svp scf=(tight,noincore,xqc) Test 
#IOP(5/87=12) Density=Current Pop=(MK,readradii) iop(6/33=2) iop(6/42=6)

holoCaM.loop4.water3.frame66 

   -3  1 
C         96.34085      -10.01837       27.84380
C         96.28749       -8.72751       28.60345
O         95.29192       -8.02941       28.48032
H         97.27888      -10.57381       28.04831
H         95.48228      -10.65326       28.15416
H         96.26360       -9.81816       26.75525
N         97.30152       -8.36201       29.44362
C         97.23210       -7.17695       30.29005
C         98.42082       -6.24197       30.09914
O         99.49837       -6.67366       29.71435
C         97.13802       -7.63627       31.75349
C         96.93243       -6.49100       32.69533
O         95.95493       -5.77087       32.57366
O         97.82524       -6.25302       33.67435
H         98.11704       -8.98581       29.54357
H         96.30685       -6.60368       30.05669
H         98.06013       -8.19204       32.03043
H         96.27248       -8.32417       31.86136
N         98.25190       -4.91398       30.36015
C         99.27970       -3.88305       30.27308
C         99.16667       -2.98865       31.50918
O        100.14031       -2.86352       32.23854
C         99.13563       -3.06343       28.94443
C         99.35251       -4.00244       27.72259
C        100.13408       -1.88656       28.91017
C         99.21348       -3.32715       26.35462
H         97.31342       -4.61357       30.64297
H        100.29321       -4.34562       30.25305
H         98.11762       -2.62700       28.88674
H         98.59955       -4.81722       27.75365
H        100.36478       -4.46078       27.77894
H         99.96388       -1.19825       29.76364
H        101.18118       -2.25389       28.94531
H         99.99543       -1.27061       27.99852
H         99.99610       -2.55915       26.19414
H         99.33662       -4.09107       25.55705
H         98.21554       -2.85890       26.24639
N         98.00658       -2.31183       31.78154
C         97.88808       -1.30895       32.84269
C         97.46681       -1.86650       34.19948
O         97.52815       -1.12108       35.16772
C         96.94506       -0.16697       32.39609
C         95.50598       -0.57522       32.16937
O         95.08909       -1.84180       32.36695
O         94.70102        0.26270       31.79708
H         97.22440       -2.41477       31.12054
H         98.89054       -0.84693       32.98376
H         97.33957        0.25713       31.44694
H         96.95885        0.63804       33.16214
N         97.01988       -3.14353       34.35744
C         96.66879       -3.71457       35.65112
C         95.56835       -2.95194       36.35673
O         95.81468       -2.45755       37.44814
H         96.94283       -3.74662       33.53146
H         97.57836       -3.72567       36.29153
H         96.33833       -4.76694       35.51631
N         94.32785       -2.82584       35.80200
C         93.23313       -2.09714       36.45382
C         92.02126       -2.96661       36.78063
O         91.13035       -2.47343       37.45910
C         92.82616       -0.85736       35.62386
C         92.33672       -1.11954       34.21939
O         92.31178       -2.35616       33.69375
O         91.97266       -0.17963       33.53219
H         94.17479       -3.25894       34.88102
H         93.58009       -1.71320       37.43786
H         93.70392       -0.18087       35.55096
H         92.02470       -0.31666       36.17358
N         91.90355       -4.25026       36.34443
C         90.77773       -5.11311       36.66652
C         89.97680       -5.46320       35.43512
O         89.25660       -6.45067       35.47691
H         92.62997       -4.64970       35.74031
H         90.08838       -4.67867       37.42148
H         91.19849       -6.04537       37.10384
N         90.02857       -4.68895       34.31011
C         89.35010       -5.02660       33.06651
C         90.37852       -5.15393       31.91215
O         91.63934       -5.49995       32.43166
C         88.32411       -3.94089       32.69700
C         87.20322       -3.82055       33.73826
C         86.20462       -2.76540       33.33677
N         86.57224       -1.46656       33.23081
O         85.04722       -3.08607       33.11145
H         90.58210       -3.82716       34.32129
H         88.82513       -6.00135       33.18169
H         87.86046       -4.19132       31.71775
H         88.85401       -2.96843       32.59034
H         87.61895       -3.55924       34.73481
H         86.68914       -4.80400       33.81880
H         87.53947       -1.17223       33.42900
H         85.88450       -0.74924       32.95676
N         89.91598       -6.16269       30.94129
C         90.49486       -6.04253       29.59139
C         89.83277       -4.93404       28.76557
O         88.61388       -4.83664       28.74427
C         90.46430       -7.43002       28.89124
C         89.04717       -7.92940       28.57858
C         91.31786       -7.42925       27.61295
H         88.87267       -6.17461       30.86592
H         91.56922       -5.83257       29.67685
H         90.93859       -8.15966       29.58617
H         88.43870       -7.99570       29.50296
H         88.54089       -7.25933       27.85308
H         89.09762       -8.94535       28.13307
H         91.35430       -8.44727       27.17117
H         90.90124       -6.73368       26.85978
H         92.36169       -7.12755       27.84712
N         90.59985       -4.11765       27.99005
C         90.09000       -3.08722       27.08743
C         90.31984       -3.55668       25.65350
O         90.92202       -4.59953       25.47074
C         90.79105       -1.75263       27.46257
C         90.41941       -0.53033       26.65347
N         89.74713        0.49852       27.22087
O         90.77022       -0.44083       25.48814
H         91.61052       -4.28497       27.97408
H         88.99230       -2.96947       27.21775
H         91.89595       -1.87223       27.40755
H         90.53300       -1.55741       28.52532
H         89.45388        0.46342       28.20762
H         89.51544        1.33718       26.66736
N         89.78948       -2.90352       24.58485
C         89.93438       -3.38047       23.20754
C         91.38848       -3.39053       22.73180
O         91.80643       -4.39482       22.17190
C         88.95989       -2.64270       22.26502
C         89.17357       -1.15947       22.10945
C         90.14422       -0.66860       21.22350
C         88.35907       -0.25159       22.80835
C         90.29631        0.70923       21.03918
C         88.52471        1.12415       22.63631
C         89.48906        1.61020       21.74882
O         89.62547        2.94062       21.58113
H         89.19476       -2.08348       24.76534
H         89.57103       -4.43378       23.17230
H         87.94371       -2.81128       22.68768
H         88.94516       -3.11500       21.25842
H         90.76792       -1.35177       20.66044
H         87.59755       -0.60770       23.49149
H         91.04058        1.07434       20.34305
H         87.89542        1.81182       23.18719
H         90.27160        3.31769       20.96740
N         92.23688       -2.34613       22.97812
C         93.65841       -2.33641       22.59054
C         94.49851       -3.42742       23.26495
O         95.67894       -3.51755       22.95318
C         94.30975       -0.97373       22.93217
C         93.72766        0.18398       22.11538
C         94.38446        1.48219       22.48714
O         95.71377        1.63896       22.33468
O         93.71506        2.40447       22.92443
H         91.85189       -1.52594       23.46499
H         93.72794       -2.49497       21.49149
H         95.39838       -1.01690       22.70283
H         94.19362       -0.77518       24.02165
H         92.64065        0.26584       22.29933
H         93.89481       -0.00618       21.03284
N         93.97919       -4.29065       24.17827
C         94.73922       -5.33069       24.85147
C         94.28004       -6.69002       24.35108
O         95.11093       -7.45631       23.88356
C         94.55825       -5.19190       26.37302
C         95.05962       -3.83312       26.89759
C         94.89760       -3.77352       28.38511
O         93.67841       -3.90523       28.91957
O         95.86434       -3.66495       29.10882
H         92.99458       -4.21813       24.43067
H         95.82766       -5.24470       24.63317
H         95.13090       -6.00246       26.87183
H         93.48376       -5.31038       26.63246
H         94.48567       -2.99927       26.44039
H         96.13028       -3.71913       26.63529
N         92.96563       -7.04480       24.37316
C         92.48886       -8.30550       23.84956
H         91.38039       -8.34863       23.92358
H         92.77007       -8.40239       22.77876
H         92.92025       -9.14680       24.42974
H         92.26877       -6.39219       24.74270
Ca        93.21147       -4.74020       30.95667
O         93.93820       -6.32101       34.40624
H         94.07894       -7.12102       33.84225
H         93.87752       -6.67700       35.32730
O         93.66540       -7.61235       31.24621
H         93.47161       -7.39635       30.30042
H         93.71562       -8.59980       31.27160
O         92.20767       -1.96380       30.55992
H         92.48240       -1.01805       30.46326
H         91.41734       -1.93787       31.15517

Ca 1.0



