%chk=holoCaM-CaMKII.loop4.water1.frame409.chk
%nprocshared=20
%mem=10GB
%nosave
#b3lyp/svp scf=(tight,noincore,xqc) Test 
#IOP(5/87=12) Density=Current Pop=(MK,readradii) iop(6/33=2) iop(6/42=6)

holoCaM-CaMKII.loop4.water1.frame409 

   -3  1 
C         32.84580       51.79550       64.70072
C         31.66014       52.44818       65.35079
O         31.61271       53.66708       65.40561
H         33.76929       52.07519       65.24916
H         32.75688       50.68795       64.70969
H         32.92669       52.13230       63.64662
N         30.65742       51.68768       65.86831
C         29.47123       52.23930       66.52068
C         29.89108       53.02741       67.76469
O         30.33593       52.42893       68.73429
C         28.55405       51.05039       66.87769
C         27.24704       51.27052       67.57903
O         26.71849       50.28066       68.04806
O         26.62218       52.45869       67.71387
H         30.74352       50.66246       65.77700
H         28.95620       52.89900       65.78912
H         29.15161       50.38634       67.54070
H         28.32492       50.46874       65.95603
N         29.85325       54.39278       67.76001
C         30.33049       55.23140       68.86391
C         29.36855       55.22019       70.06479
O         29.75531       55.71508       71.11316
C         30.59053       56.70271       68.34872
C         31.62306       56.69525       67.17890
C         31.07532       57.65254       69.46747
C         31.90183       58.07128       66.56505
H         29.56435       54.84899       66.88598
H         31.30991       54.82133       69.19790
H         29.63092       57.11384       67.96552
H         31.24534       56.07337       66.34599
H         32.58475       56.25710       67.52262
H         30.31406       57.78223       70.25795
H         32.02501       57.28528       69.91043
H         31.22142       58.68220       69.09047
H         32.57369       57.95409       65.68885
H         30.95810       58.54594       66.22827
H         32.41697       58.74351       67.27904
N         28.10711       54.70070       70.00192
C         27.13468       54.82713       71.08827
C         26.72726       53.48925       71.66571
O         25.97750       53.48697       72.63383
C         25.84812       55.49868       70.55358
C         26.09791       56.83780       69.92703
O         26.60659       57.84578       70.65878
O         25.81780       57.02424       68.75368
H         27.79346       54.24158       69.14569
H         27.55429       55.43567       71.91855
H         25.11469       55.63047       71.37918
H         25.38546       54.82722       69.79331
N         27.10248       52.31080       71.09571
C         26.56019       51.03760       71.52305
C         25.05216       51.05316       71.40039
O         24.37446       50.74736       72.37074
H         27.73172       52.29929       70.28180
H         26.87123       50.81269       72.56661
H         26.96172       50.24025       70.86125
N         24.46593       51.43514       70.22851
C         23.02396       51.47006       70.00953
C         22.59103       50.48984       68.92482
O         21.39226       50.35462       68.72082
C         22.55308       52.91375       69.70174
C         23.05286       53.51975       68.41064
O         22.68115       54.77311       68.08857
O         23.77028       52.89789       67.64506
H         25.07748       51.72358       69.45778
H         22.50377       51.15555       70.94023
H         22.86933       53.57209       70.53989
H         21.44236       52.92422       69.66312
N         23.49507       49.75986       68.20341
C         23.12867       48.74411       67.23738
C         23.55127       49.04119       65.81213
O         23.23350       48.20756       64.97728
H         24.49314       49.87949       68.36873
H         22.02775       48.60247       67.21840
H         23.58228       47.78070       67.55623
N         24.22749       50.17207       65.42165
C         24.43444       50.46857       63.99397
C         25.41936       51.60632       63.71674
O         25.87350       52.26353       64.64129
C         23.05243       50.74160       63.33408
C         22.23718       51.85402       64.03439
C         22.77137       53.22882       63.76245
N         22.76448       53.71434       62.50187
O         23.18769       53.91958       64.68067
H         24.55217       50.84011       66.13315
H         24.90781       49.57681       63.52678
H         22.44283       49.82126       63.41284
H         23.15280       50.94229       62.24725
H         22.19476       51.66050       65.12918
H         21.19195       51.83170       63.66070
H         22.38906       53.15550       61.72176
H         23.11738       54.65670       62.30837
N         25.84377       51.83123       62.42773
C         26.85954       52.82097       62.06476
C         26.33032       53.75583       60.97021
O         26.14153       53.31857       59.84397
C         28.15492       52.09309       61.57838
C         29.28574       53.08098       61.24346
C         28.67236       51.09527       62.62764
H         25.48114       51.22544       61.67671
H         27.12908       53.42225       62.96003
H         27.91691       51.51391       60.65803
H         28.97935       53.78207       60.44398
H         29.57938       53.65930       62.14408
H         30.17913       52.53241       60.87377
H         27.91138       50.31738       62.84508
H         29.57762       50.57376       62.24720
H         28.93316       51.61890       63.57000
N         26.08345       55.06903       61.24250
C         25.69551       56.07463       60.24972
C         26.87690       56.45480       59.36984
O         27.97244       55.95242       59.57175
C         25.22987       57.36487       60.97469
C         23.95885       57.14875       61.74751
N         23.93087       57.28927       63.09213
O         22.93570       56.85482       61.14685
H         26.16878       55.37068       62.21365
H         24.86141       55.69015       59.62232
H         25.01906       58.18212       60.25448
H         26.04664       57.71468       61.64525
H         24.78270       57.54017       63.61329
H         23.05438       57.14039       63.61390
N         26.72411       57.38765       58.38455
C         27.84363       57.92999       57.62468
C         28.74097       58.76486       58.52829
O         29.95213       58.64860       58.41842
C         27.35161       58.78921       56.44224
C         28.50357       59.20057       55.54679
C         29.27766       58.22221       54.89269
C         28.81736       60.55609       55.35524
C         30.34679       58.59198       54.07384
C         29.88776       60.92402       54.53123
C         30.65680       59.94154       53.88935
O         31.69183       60.28033       53.09433
H         25.77779       57.74477       58.18313
H         28.41418       57.07917       57.19362
H         26.80565       59.67650       56.83263
H         26.64144       58.19571       55.82669
H         29.05777       57.16934       55.01412
H         28.23776       61.32832       55.84456
H         30.93452       57.82657       53.58182
H         30.11961       61.97231       54.39319
H         31.94088       61.20194       52.93662
N         28.21613       59.63285       59.44903
C         29.05757       60.40901       60.36451
C         29.86737       59.53336       61.32839
O         30.70911       60.07881       62.02857
C         28.23103       61.45626       61.15602
C         27.23185       60.85167       62.15865
C         26.49260       61.92598       62.90414
O         26.60093       62.01339       64.24427
O         25.78285       62.71722       62.30401
H         27.19246       59.74622       59.48805
H         29.77510       60.98182       59.73587
H         27.68728       62.10066       60.43121
H         28.93538       62.10621       61.72253
H         27.78537       60.24220       62.89816
H         26.49356       60.20645       61.64058
N         29.67314       58.18311       61.42138
C         30.43802       57.30180       62.29788
C         31.27496       56.29587       61.50483
O         32.03721       55.56732       62.12516
C         29.47244       56.52823       63.21200
C         28.58568       57.43146       64.08304
C         27.66291       56.56969       64.88454
O         27.74046       56.51816       66.21544
O         26.89183       55.81489       64.32485
H         28.93974       57.74475       60.85835
H         31.14484       57.89326       62.91986
H         30.05542       55.85092       63.87656
H         28.81579       55.90273       62.56592
H         27.97352       58.10105       63.45205
H         29.22328       58.03923       64.75648
N         31.18900       56.18748       60.14665
C         31.97258       55.26871       59.34838
H         32.67568       54.66669       59.95837
H         31.28940       54.58179       58.80522
H         32.55707       55.84717       58.60105
H         30.53068       56.76725       59.62700
Ca        27.15714       54.45040       66.85070
O         24.07285       57.15255       66.28221
H         24.82796       57.77094       66.11453
H         23.41541       57.69575       66.78506

Ca 1.0



