%chk=holoCaM.loop3.water3.frame338.chk
%nprocshared=20
%mem=10GB
%nosave
#b3lyp/svp scf=(tight,noincore,xqc) Test 
#IOP(5/87=12) Density=Current Pop=(MK,readradii) iop(6/33=2) iop(6/42=6)

holoCaM.loop3.water3.frame338 

   0  1 
C        110.71816        4.30987       11.99388
C        111.96647        3.60298       12.42251
O        112.59233        2.93829       11.60852
H        109.86229        3.95084       12.60255
H        110.84342        5.40259       12.14821
H        110.50506        4.12065       10.92073
N        112.39897        3.72314       13.70692
C        113.62190        3.09912       14.19131
C        113.49205        1.58256       14.11446
O        112.65852        1.00749       14.79996
C        113.91274        3.61037       15.61557
C        115.24156        3.22482       16.18007
O        115.57833        3.69192       17.39277
O        116.02629        2.52864       15.56011
H        111.84859        4.31588       14.34862
H        114.45208        3.44407       13.53864
H        113.11187        3.27327       16.30780
H        113.90694        4.72193       15.58729
N        114.24284        0.89083       13.21435
C        114.08389       -0.53328       12.93387
C        114.50156       -1.40229       14.11040
O        113.72879       -2.27069       14.49018
C        114.85629       -0.89045       11.64267
C        114.51060       -2.27642       11.07194
C        115.16160       -2.46814        9.69017
C        114.77088       -3.81246        9.05913
N        115.36853       -3.96168        7.73097
H        114.89111        1.43245       12.62592
H        113.01176       -0.71790       12.69450
H        115.95132       -0.80628       11.80107
H        114.54473       -0.14872       10.87319
H        113.40743       -2.34769       10.94708
H        114.84494       -3.07337       11.77021
H        116.26761       -2.40950        9.78667
H        114.82174       -1.65327        9.01203
H        113.66320       -3.87057        8.96474
H        115.11234       -4.64467        9.71296
H        116.41160       -3.92654        7.79757
H        115.08624       -4.88465        7.32832
H        115.03103       -3.20197        7.09554
N        115.69848       -1.21705       14.74576
C        116.17123       -2.07768       15.83672
C        116.15740       -1.40051       17.20243
O        116.53374       -2.04598       18.17182
C        117.58580       -2.61470       15.51591
C        118.68212       -1.57455       15.49315
O        119.94901       -1.96357       15.25937
O        118.45049       -0.39480       15.70345
H        116.28993       -0.42832       14.44447
H        115.50248       -2.96047       15.93382
H        117.56223       -3.13190       14.53352
H        117.86240       -3.36390       16.28933
N        115.71873       -0.12451       17.37283
C        115.67402        0.52566       18.66929
C        117.04744        0.73179       19.26743
O        117.27210        0.26579       20.37570
H        115.35998        0.40002       16.56666
H        115.03390       -0.06829       19.35869
H        115.19854        1.52007       18.56275
N        117.99829        1.46552       18.61359
C        119.29055        1.81249       19.21497
C        119.43620        3.31864       19.42909
O        120.40583        3.72959       20.05105
C        120.46703        1.25920       18.38227
C        120.68745        1.99304       17.07585
N        121.86257        2.62222       16.83300
O        119.80604        2.02241       16.23201
H        117.77206        1.81756       17.67234
H        119.35760        1.34302       20.22022
H        120.30349        0.17748       18.18689
H        121.39041        1.34749       18.99573
H        122.62467        2.61227       17.52685
H        122.01524        3.12305       15.94535
N        118.52232        4.19871       18.92865
C        118.56867        5.63425       19.11022
C        118.74168        6.36955       17.79993
O        118.59385        7.58348       17.81505
H        117.73268        3.85707       18.37764
H        119.38319        5.95084       19.79614
H        117.60213        5.93764       19.56764
N        119.12706        5.73530       16.64728
C        119.37939        6.45428       15.40452
C        118.61843        5.78281       14.23420
O        119.26729        4.56590       13.98616
C        120.90216        6.50538       15.08526
C        121.73788        7.12983       16.17412
C        121.94031        6.46130       17.39486
C        122.35466        8.37416       15.96596
C        122.73113        7.03307       18.39231
C        123.14500        8.94578       16.96660
C        123.33491        8.27626       18.18428
O        124.09794        8.81368       19.15645
H        119.32420        4.72437       16.66091
H        119.02736        7.50482       15.49841
H        121.02195        7.09293       14.14854
H        121.31853        5.49362       14.88996
H        121.49930        5.49038       17.57595
H        122.22235        8.90494       15.03111
H        122.87796        6.50442       19.32566
H        123.61079        9.90714       16.79247
H        124.53677        9.66949       19.05046
N        118.71330        6.63873       13.03917
C        117.92331        6.23769       11.85752
C        118.75042        6.61268       10.63948
O        119.17776        7.75329       10.52960
C        116.51556        6.92924       11.80044
C        115.63284        6.47037       12.98871
C        115.81078        6.61677       10.45642
C        114.27042        7.16709       13.06643
H        118.52680        7.64418       13.26490
H        117.76068        5.13780       11.84762
H        116.65698        8.03137       11.85704
H        116.15228        6.69049       13.94220
H        115.47332        5.37506       12.92144
H        115.63719        5.52529       10.34357
H        114.84325        7.14822       10.36744
H        116.41419        6.97088        9.59583
H        113.63641        6.94507       12.18491
H        113.72173        6.80240       13.96001
H        114.40723        8.26537       13.15730
N        118.96874        5.69473        9.65883
C        119.73337        5.94604        8.44708
C        118.79837        5.95700        7.25429
O        117.61044        5.74376        7.42333
C        120.81293        4.85624        8.29819
O        120.21397        3.59172        8.18310
H        118.51835        4.77981        9.73904
H        120.22915        6.93900        8.49592
H        121.47136        4.87426        9.19519
H        121.42943        5.05863        7.39500
H        120.94954        2.94524        8.02238
N        119.26832        6.22125        6.00609
C        118.41178        6.21983        4.82416
C        117.80651        4.84599        4.58525
O        116.62034        4.76582        4.29697
C        119.20694        6.66135        3.59431
H        120.27111        6.43431        5.89482
H        117.59614        6.96728        4.95353
H        119.61384        7.68217        3.76361
H        120.04696        5.96573        3.38948
H        118.53851        6.70161        2.70722
N        118.56116        3.71768        4.72846
C        118.05247        2.36240        4.51956
C        116.81203        2.09511        5.34956
O        115.78941        1.72356        4.79161
C        119.13439        1.33344        4.87753
H        119.54424        3.83052        5.02315
H        117.79666        2.23331        3.44479
H        119.42998        1.42337        5.94598
H        118.75864        0.30298        4.70091
H        120.03650        1.49244        4.25055
N        116.83209        2.29399        6.69351
C        115.67505        2.09539        7.56320
C        114.50371        2.94129        7.08957
O        113.44348        2.38615        6.83477
C        116.07198        2.43373        9.01108
C        117.04477        1.37463        9.57434
C        117.61264        1.85380       10.86538
O        118.39129        2.78746       10.85530
O        117.26297        1.33217       12.04876
H        117.71227        2.63804        7.10777
H        115.35399        1.02948        7.53747
H        115.17680        2.45436        9.67266
H        116.52578        3.45039        9.02263
H        117.89979        1.17485        8.89455
H        116.49098        0.42573        9.70908
N        114.63172        4.28034        6.89763
C        113.55717        5.09435        6.37278
H        112.68936        5.07558        7.06408
H        113.90133        6.14397        6.25236
H        113.24791        4.71301        5.37525
H        115.52912        4.73201        7.09384
Ca       117.89192        2.82977       13.58214
O        121.43011        3.03418       12.57361
H        122.12574        2.98709       13.27668
H        121.41509        3.98686       12.30417
O        119.16872       -0.91223       12.35121
H        120.08243       -1.29145       12.31610
H        118.70538       -1.30526       11.56962
O        121.81248        0.24063       13.94234
H        122.57797        0.47661       14.52376
H        121.01405        0.44184       14.49086

Ca 1.0



