%chk=holoCaM.loop1.water2.frame220.chk
%nprocshared=20
%mem=10GB
%nosave
#b3lyp/svp scf=(tight,noincore,xqc) Test 
#IOP(5/87=12) Density=Current Pop=(MK,readradii) iop(6/33=2) iop(6/42=6)

holoCaM.loop1.water2.frame220 

   0  1 
C         26.62607       59.97758       40.70872
C         26.10233       58.62631       41.07014
O         24.92240       58.53521       41.37625
H         27.70630       59.94149       40.46354
H         26.06246       60.36593       39.83519
H         26.47514       60.66188       41.57137
N         26.91960       57.53081       41.08682
C         26.44588       56.22110       41.50227
C         27.15010       55.87846       42.80710
O         28.33556       55.57568       42.79148
C         26.66870       55.17489       40.37992
C         25.85347       53.93073       40.59980
O         25.94899       52.98282       39.84009
O         24.96966       53.90798       41.61093
H         27.91652       57.63836       40.84475
H         25.35319       56.28862       41.68926
H         27.75183       54.93657       40.29803
H         26.34035       55.59418       39.40607
N         26.50524       56.07370       43.99356
C         27.19551       56.10403       45.28416
C         27.33168       54.73021       45.93829
O         27.98102       54.65332       46.97132
C         26.49135       57.11312       46.22486
C         26.52878       58.53937       45.63413
C         25.80993       59.56043       46.52268
C         25.88372       60.96166       45.89346
N         25.18999       61.95084       46.71682
H         25.54414       56.43911       43.95072
H         28.22845       56.49073       45.12856
H         27.00774       57.13189       47.20949
H         25.43790       56.79356       46.38686
H         26.04221       58.55517       44.63569
H         27.59021       58.84797       45.50950
H         26.28407       59.58096       47.52798
H         24.74374       59.26398       46.63357
H         25.41936       60.94139       44.88172
H         26.94952       61.26240       45.78131
H         24.17860       61.69956       46.80466
H         25.62747       62.00078       47.66531
H         25.26606       62.88844       46.25953
N         26.78253       53.60595       45.39251
C         26.98317       52.25110       45.92943
C         27.73982       51.35811       44.93675
O         27.99343       50.20843       45.27125
C         25.65703       51.59798       46.42738
C         24.56888       51.45721       45.40058
O         23.51450       50.90865       45.67639
O         24.72892       52.05391       44.21952
H         26.23908       53.71835       44.53056
H         27.63215       52.29393       46.83116
H         25.24990       52.20404       47.26610
H         25.89636       50.58928       46.82778
N         28.21896       51.83534       43.74769
C         29.12563       51.08642       42.88746
C         28.51960       49.96084       42.07314
O         29.27549       49.34664       41.33249
H         28.05988       52.81850       43.48917
H         29.96820       50.69817       43.50071
H         29.55763       51.79348       42.14611
N         27.19676       49.62936       42.10824
C         26.64447       48.55930       41.26983
C         26.60616       48.90640       39.76635
O         26.16147       48.06370       38.99881
C         25.25801       48.11045       41.79380
C         24.17853       49.14302       41.71230
O         22.94532       48.85404       42.16703
O         24.40103       50.23691       41.23209
H         26.57639       50.11949       42.76844
H         27.28705       47.65899       41.39652
H         25.36630       47.80931       42.85844
H         24.92055       47.21924       41.22162
N         27.08305       50.08845       39.26127
C         27.14416       50.38580       37.83233
C         25.82877       50.82754       37.20801
O         25.81815       51.06391       36.00870
H         27.51135       50.77924       39.88909
H         27.56210       49.50703       37.29309
H         27.85207       51.22850       37.67681
N         24.69469       50.98822       37.94446
C         23.40495       51.41675       37.40555
C         22.92173       52.67403       38.12301
O         22.96194       52.71171       39.34477
C         22.36962       50.27716       37.55346
C         22.72638       49.06125       36.68368
O         22.20400       49.89717       38.89623
H         24.73478       50.78732       38.94699
H         23.47015       51.63962       36.31737
H         21.38926       50.65020       37.18349
H         22.95429       49.29900       39.14744
H         23.70057       48.62421       36.99040
H         21.93971       48.28462       36.78879
H         22.78868       49.35906       35.61563
N         22.38163       53.71745       37.42080
C         21.87324       54.93927       38.04752
C         20.34859       54.91054       38.03294
O         19.74757       54.95631       36.96855
C         22.45629       56.19795       37.32631
C         23.99391       56.24582       37.52265
C         21.80201       57.50321       37.82179
C         24.68682       57.39951       36.79252
H         22.27291       53.62065       36.39951
H         22.18889       54.98021       39.11312
H         22.22566       56.11111       36.24076
H         24.43976       55.30150       37.14378
H         24.22211       56.32867       38.60762
H         20.70153       57.47710       37.69137
H         22.04418       57.67792       38.88394
H         22.14852       58.37551       37.23268
H         24.35981       58.38504       37.18196
H         25.78282       57.33187       36.95710
H         24.48431       57.34466       35.70234
N         19.66557       54.80656       39.21224
C         18.20579       54.76527       39.31705
C         17.59201       56.14093       39.07340
O         18.31505       57.10646       38.87780
C         17.75798       54.25548       40.72584
C         18.26486       52.84531       41.04418
O         18.11230       55.15666       41.74556
H         20.22003       54.70143       40.07082
H         17.81468       54.03946       38.57006
H         16.65263       54.16877       40.74399
H         19.07118       55.03011       41.96151
H         17.86414       52.51505       42.02630
H         17.93349       52.12814       40.26396
H         19.36759       52.84202       41.10479
N         16.23797       56.29941       39.14236
C         15.56113       57.59528       39.09844
C         16.05506       58.49215       40.22261
O         16.31932       59.65918       39.97055
C         14.02343       57.43326       39.21466
C         13.43229       56.69532       38.00765
O         13.69278       56.75393       40.39997
H         15.66225       55.45872       39.28793
H         15.76597       58.09957       38.12688
H         13.58234       58.45892       39.23081
H         12.75388       56.99124       40.61830
H         12.32758       56.64103       38.10773
H         13.67023       57.24433       37.07176
H         13.82612       55.66157       37.92819
N         16.22402       58.00337       41.48541
C         16.72961       58.80710       42.59604
C         18.10991       59.35576       42.27029
O         18.30188       60.56285       42.30784
C         16.82798       57.97351       43.89942
C         15.47456       57.43819       44.39331
C         15.64854       56.66239       45.70716
C         14.30899       56.10396       46.20473
N         14.47850       55.38239       47.46601
H         16.01033       57.00896       41.64898
H         16.03318       59.65527       42.78234
H         17.25298       58.62394       44.69658
H         17.51912       57.11486       43.75183
H         15.03081       56.75841       43.63645
H         14.77999       58.29026       44.55782
H         16.07268       57.34033       46.48021
H         16.35528       55.81768       45.54853
H         13.88949       55.41231       45.44030
H         13.59033       56.93968       46.35575
H         15.13919       54.58154       47.33857
H         14.84513       56.02805       48.20282
H         13.55150       55.01003       47.77479
N         19.12469       58.50360       41.95584
C         20.50080       58.92525       41.70415
C         20.65706       59.76479       40.43776
O         21.75310       60.26155       40.21562
C         21.41279       57.68205       41.60253
C         21.46675       56.88403       42.91511
C         22.29160       55.64363       42.75580
O         21.97817       54.79911       41.93351
O         23.35948       55.43735       43.54447
H         18.90625       57.50048       41.93357
H         20.84246       59.54002       42.56660
H         22.44757       57.99151       41.34930
H         21.02761       57.02965       40.78886
H         20.45359       56.56870       43.23189
H         21.89793       57.52186       43.71682
N         19.63390       59.95985       39.55769
C         19.74880       60.75517       38.35181
H         19.00576       61.57973       38.38591
H         20.75840       61.19880       38.22708
H         19.53341       60.11671       37.46949
H         18.72550       59.52007       39.72552
Ca        23.52431       52.39874       42.40174
O         21.10194       50.98775       41.31367
H         20.46200       50.46722       41.85979
H         20.65190       51.08832       40.43808
O         20.51320       52.33347       44.14352
H         20.16856       51.41241       44.25909
H         21.48745       52.25292       44.29787

Ca 1.0



