%chk=holoCaM-CaMKII.loop4.water1.frame359.chk
%nprocshared=20
%mem=10GB
%nosave
#b3lyp/svp scf=(tight,noincore,xqc) Test 
#IOP(5/87=12) Density=Current Pop=(MK,readradii) iop(6/33=2) iop(6/42=6)

holoCaM-CaMKII.loop4.water1.frame359 

   -3  1 
C         49.91780       56.05840       12.40169
C         48.91227       55.91236       11.29749
O         47.93803       55.19661       11.47745
H         50.74409       56.74127       12.11096
H         49.42005       56.47603       13.30236
H         50.34804       55.06595       12.64789
N         49.07249       56.58535       10.12490
C         48.10118       56.52398        9.04092
C         48.03196       55.12012        8.44903
O         49.02137       54.64034        7.91309
C         48.47555       57.54950        7.95987
C         47.45923       57.66663        6.86653
O         47.66353       58.45691        5.96760
O         46.31991       56.94721        6.87159
H         49.89429       57.20186       10.02332
H         47.11243       56.82709        9.45587
H         49.46019       57.28187        7.51709
H         48.56690       58.55288        8.43175
N         46.87907       54.40202        8.53814
C         46.73514       53.02895        8.06158
C         46.47719       53.00794        6.55217
O         47.29893       52.49484        5.80668
C         45.59231       52.30559        8.85953
C         45.92373       52.29451       10.37845
C         45.35499       50.87966        8.32758
C         44.81942       51.70304       11.25659
H         46.10339       54.82818        9.05705
H         47.67686       52.47559        8.27905
H         44.64294       52.86650        8.72943
H         46.07078       53.33478       10.73216
H         46.86822       51.73786       10.55775
H         45.08031       50.90071        7.25251
H         46.26319       50.25614        8.45758
H         44.50068       50.39977        8.84566
H         44.66766       50.62571       11.05054
H         45.10895       51.80318       12.32414
H         43.86459       52.24440       11.09810
N         45.29867       53.48018        6.05703
C         44.86343       53.36864        4.65800
C         45.59093       54.30768        3.68256
O         45.30176       54.23158        2.49599
C         43.31725       53.51804        4.57017
C         42.82603       54.72304        5.31063
O         43.33329       55.92001        5.01441
O         42.06582       54.60191        6.25802
H         44.63200       53.84028        6.74803
H         45.06824       52.33434        4.30290
H         42.84989       52.62500        5.04135
H         42.98735       53.54627        3.50937
N         46.57802       55.16181        4.07446
C         47.38533       55.93921        3.14096
C         46.65283       57.06775        2.44099
O         46.67696       57.12526        1.21987
H         46.84636       55.20359        5.06543
H         47.85163       55.25556        2.39625
H         48.21271       56.41485        3.71031
N         46.05162       58.04873        3.16919
C         45.51728       59.29395        2.60796
C         46.18045       60.51133        3.25724
O         45.63667       61.60420        3.17527
C         43.97793       59.33636        2.71519
C         43.40792       59.23792        4.09565
O         42.19987       59.12502        4.22844
O         44.19201       59.14176        5.17872
H         46.02032       57.92409        4.18852
H         45.72114       59.35900        1.51668
H         43.58762       58.46804        2.13977
H         43.58795       60.26105        2.23911
N         47.39807       60.40409        3.86510
C         48.10879       61.51579        4.47877
C         47.51578       62.03564        5.77938
O         48.10807       62.95984        6.32122
H         47.89698       59.50554        3.82772
H         48.19368       62.34414        3.74263
H         49.13889       61.17602        4.72283
N         46.37980       61.53106        6.34837
C         45.80562       62.05607        7.59061
C         45.59378       60.96883        8.62950
O         45.74214       59.79475        8.31263
C         44.53057       62.88002        7.26881
C         43.42876       62.19997        6.42490
C         42.54730       61.22292        7.16592
N         41.20865       61.42277        7.21890
O         43.02406       60.23263        7.69318
H         45.88328       60.76820        5.87490
H         46.51910       62.76947        8.05875
H         44.89488       63.72579        6.64483
H         44.09076       63.32292        8.18820
H         43.87192       61.71847        5.53250
H         42.77567       63.01110        6.03801
H         40.77218       62.23713        6.76263
H         40.59741       60.75099        7.70182
N         45.28971       61.30073        9.92035
C         45.06796       60.31712       10.97592
C         43.71624       60.57047       11.62968
O         43.59460       61.51903       12.39482
C         46.23456       60.36311       12.01688
C         45.99616       59.44355       13.22921
C         47.56716       59.96388       11.36125
H         45.24018       62.30003       10.17561
H         45.05846       59.29533       10.54939
H         46.33171       61.40252       12.40279
H         45.88444       58.38571       12.91416
H         46.84976       59.51316       13.93822
H         45.09546       59.75753       13.79103
H         47.81376       60.63643       10.51485
H         48.39572       60.02952       12.09974
H         47.51608       58.91871       10.98737
N         42.65663       59.74045       11.39574
C         41.41378       59.80471       12.16435
C         41.66534       59.33647       13.58146
O         42.74684       58.86495       13.88573
C         40.32892       58.87322       11.55691
C         39.61093       59.49633       10.39490
N         38.84137       60.59401       10.58684
O         39.67039       58.98343        9.29082
H         42.75332       59.00778       10.68148
H         41.04142       60.85141       12.20336
H         39.52447       58.65636       12.29024
H         40.78583       57.89576       11.28688
H         38.74620       61.01082       11.52528
H         38.31335       61.01053        9.80661
N         40.67085       59.42011       14.50455
C         40.78081       58.87146       15.84778
C         40.90129       57.35709       15.78822
O         41.77118       56.80844       16.44906
C         39.54069       59.25202       16.67753
C         39.63814       58.69343       18.07723
C         40.66148       59.11030       18.94760
C         38.71656       57.72929       18.51298
C         40.76153       58.56458       20.23029
C         38.82023       57.18342       19.79412
C         39.84466       57.59839       20.65717
O         39.95833       57.07466       21.89385
H         39.78802       59.87749       14.22861
H         41.67088       59.30778       16.35360
H         38.63418       58.86133       16.16467
H         39.44747       60.35851       16.73343
H         41.38455       59.85320       18.63411
H         37.92545       57.38972       17.85621
H         41.55567       58.88982       20.89084
H         38.10637       56.43457       20.11159
H         39.34786       56.39962       22.22299
N         40.05238       56.62122       15.01105
C         40.10365       55.16307       14.91820
C         41.50517       54.68189       14.58351
O         41.98748       53.75746       15.22267
C         39.03900       54.61842       13.92846
C         39.25722       54.98548       12.44928
C         38.12293       54.47454       11.60360
O         37.44376       55.25242       10.95220
O         37.85136       53.15578       11.55584
H         39.35062       57.12614       14.44849
H         39.83186       54.74534       15.91297
H         38.04584       55.00219       14.25246
H         39.01469       53.50902       14.00987
H         40.19839       54.52865       12.07767
H         39.32546       56.08664       12.33491
N         42.24114       55.32012       13.63446
C         43.61730       54.96238       13.30862
C         44.51792       55.18145       14.51810
O         45.24676       54.27369       14.89290
C         44.11478       55.74610       12.06948
C         43.18736       55.49356       10.85911
C         43.71123       56.06054        9.57684
O         43.80958       55.34564        8.59607
O         44.02118       57.36073        9.47179
H         41.80533       56.11659       13.14875
H         43.65665       53.88885       13.02122
H         45.14019       55.38953       11.82825
H         44.16147       56.83687       12.27750
H         42.19824       55.95422       11.03810
H         43.03476       54.40246       10.72240
N         44.46541       56.34785       15.21771
C         45.23860       56.59218       16.41640
H         46.32123       56.60692       16.17751
H         44.95487       57.57615       16.85201
H         45.02795       55.80850       17.17581
H         43.81377       57.07698       14.91783
Ca        43.31656       57.60299        6.48094
O         40.88077       56.59922        8.11974
H         40.16546       56.58702        7.43584
H         41.26571       57.50862        8.05647

Ca 1.0



