%chk=holoCaM.loop3.water2.frame443.chk
%nprocshared=20
%mem=10GB
%nosave
#b3lyp/svp scf=(tight,noincore,xqc) Test 
#IOP(5/87=12) Density=Current Pop=(MK,readradii) iop(6/33=2) iop(6/42=6)

holoCaM.loop3.water2.frame443 

   0  1 
C         23.83605       73.36253       56.70109
C         24.65182       72.10793       56.64932
O         24.11336       71.02978       56.85910
H         22.77641       73.13400       56.94165
H         24.24683       74.04206       57.47621
H         23.87728       73.86814       55.71288
N         25.97588       72.17776       56.34601
C         26.81590       70.99605       56.22525
C         26.93166       70.29365       57.57060
O         27.40029       70.89705       58.52598
C         28.19003       71.39439       55.65243
C         29.03542       70.22231       55.25056
O         28.62121       68.95772       55.44428
O         30.10261       70.42300       54.70226
H         26.38269       73.10670       56.15121
H         26.33856       70.32529       55.47917
H         28.74352       72.03357       56.37498
H         28.01760       71.98437       54.72549
N         26.48461       69.01442       57.71254
C         26.47632       68.29048       58.98117
C         27.86455       68.14229       59.58132
O         28.01409       68.49101       60.74457
C         25.78691       66.91284       58.83095
C         24.27147       67.08723       58.60184
C         23.52465       65.74909       58.52024
C         22.00745       65.99105       58.44284
N         21.27068       64.73219       58.34214
H         26.10021       68.54455       56.87880
H         25.86862       68.86074       59.72086
H         25.90781       66.34743       59.78150
H         26.25954       66.32281       58.01677
H         24.07851       67.66867       57.67501
H         23.86107       67.65892       59.46380
H         23.74129       65.14339       59.42686
H         23.86736       65.18251       57.62882
H         21.76785       66.62584       57.56080
H         21.67885       66.53065       59.36016
H         21.52089       64.24231       57.45288
H         21.48760       64.11807       59.16044
H         20.24496       64.93746       58.33803
N         28.92678       67.66149       58.87045
C         30.25034       67.47642       59.47734
C         31.25317       68.54704       59.06995
O         32.36686       68.51546       59.57756
C         30.77719       66.04969       59.20462
C         31.11004       65.75498       57.76422
O         31.00161       66.60917       56.90134
O         31.56472       64.53353       57.42821
H         28.79454       67.44703       57.87103
H         30.16785       67.57110       60.58191
H         30.01607       65.31963       59.55398
H         31.70397       65.88793       59.79660
N         30.93253       69.54910       58.20422
C         31.84332       70.63099       57.87885
C         33.09571       70.14670       57.19153
O         34.17915       70.40027       57.69796
H         29.99320       69.58551       57.78682
H         32.10512       71.18059       58.81041
H         31.33322       71.34659       57.19850
N         33.01698       69.47948       56.00533
C         34.18972       69.08155       55.22831
C         34.25892       69.81802       53.89144
O         35.24437       69.64336       53.18577
C         34.21806       67.55016       55.02701
C         33.14363       67.03268       54.09195
N         33.48008       66.38300       52.95321
O         31.96401       67.19189       54.36170
H         32.08276       69.27790       55.62975
H         35.11054       69.35233       55.78960
H         34.12485       67.04851       56.01492
H         35.21297       67.27759       54.61232
H         34.46690       66.23049       52.69954
H         32.74934       66.02796       52.31959
N         33.25496       70.64418       53.47022
C         33.26531       71.38271       52.22212
C         32.19630       70.91049       51.25097
O         32.05455       71.54595       50.21823
H         32.42098       70.77826       54.05109
H         34.24509       71.29961       51.70264
H         33.10465       72.45572       52.46228
N         31.47866       69.75992       51.45605
C         30.58828       69.18774       50.44547
C         29.25370       68.76487       51.03810
O         29.25563       68.06981       52.04339
C         31.23310       67.93305       49.82054
C         32.53754       68.23063       49.11833
C         33.71687       68.45858       49.84995
C         32.58640       68.27000       47.71504
C         34.91905       68.72596       49.18903
C         33.78724       68.54566       47.05631
C         34.95887       68.77331       47.79180
O         36.12481       69.03539       47.16786
H         31.65876       69.19584       52.29802
H         30.41629       69.89592       49.60532
H         30.50382       67.54491       49.07419
H         31.39354       67.12735       50.56759
H         33.71171       68.41957       50.93117
H         31.69197       68.09972       47.12880
H         35.82076       68.89495       49.76434
H         33.80464       68.58144       45.97448
H         36.19332       69.07613       46.20320
N         28.07704       69.05613       50.39680
C         26.78272       68.53103       50.83640
C         26.17960       67.60314       49.78057
O         25.92035       68.02594       48.66457
C         25.78679       69.66190       51.24331
C         25.40751       70.63042       50.08896
C         26.35094       70.41996       52.45608
C         24.29110       71.60544       50.46315
H         28.10536       69.62109       49.53604
H         26.91875       67.91895       51.75282
H         24.85316       69.15593       51.57464
H         25.00147       70.06283       49.23303
H         26.29769       71.19720       49.74410
H         26.59358       69.69989       53.26438
H         27.27380       70.97332       52.18239
H         25.61022       71.13201       52.87094
H         24.59972       72.29932       51.26827
H         24.01789       72.21253       49.57428
H         23.39416       71.03967       50.78755
N         25.90888       66.30192       50.08899
C         25.18726       65.39574       49.19826
C         23.73103       65.83165       49.04645
O         23.31091       66.77562       49.70361
C         25.24080       63.96084       49.76422
O         24.64937       63.91526       51.03547
H         26.20724       65.94600       51.00200
H         25.68752       65.39098       48.20497
H         26.30817       63.65304       49.83919
H         24.71382       63.25792       49.08279
H         24.81310       63.00284       51.38877
N         22.89060       65.16707       48.19860
C         21.47567       65.51238       48.05482
C         20.64592       65.18103       49.29814
O         19.47261       65.52659       49.31718
C         20.87542       64.78615       46.84589
H         23.28100       64.41042       47.61592
H         21.40639       66.60490       47.85202
H         21.44404       65.04872       45.92832
H         20.91500       63.68566       46.99261
H         19.81805       65.09279       46.69376
N         21.17736       64.52678       50.37207
C         20.44879       64.26776       51.60798
C         20.71472       65.40455       52.56771
O         19.76797       66.01226       53.04874
C         20.87553       62.92016       52.19460
H         22.16806       64.25784       50.35630
H         19.35307       64.20675       51.41794
H         20.31299       62.71693       53.13071
H         20.65285       62.10969       51.46778
H         21.96324       62.90747       52.41938
N         21.99419       65.81377       52.80778
C         22.32774       67.01221       53.57661
C         21.73661       68.28096       52.95553
O         21.81828       69.32002       53.59681
C         23.86498       67.16303       53.66572
C         24.50357       66.07075       54.53809
C         25.99676       66.07233       54.39891
O         26.80223       66.33290       55.43976
O         26.50112       65.79553       53.32667
H         22.76095       65.27551       52.37878
H         21.90307       66.91146       54.60068
H         24.14785       68.14584       54.10519
H         24.26688       67.12047       52.62904
H         24.14977       65.06057       54.24529
H         24.21209       66.25348       55.59156
N         21.12014       68.29110       51.73605
C         20.48999       69.47667       51.19937
H         19.67109       69.80445       51.87470
H         21.22966       70.29291       51.09182
H         20.05432       69.25365       50.20155
H         21.07807       67.44475       51.15553
Ca        29.00618       66.21310       54.96090
O         29.35932       65.04695       51.81358
H         28.86973       65.55199       51.11670
H         30.31195       65.12867       51.55688
O         29.54747       63.26742       54.52443
H         28.56962       63.41835       54.48032
H         29.78540       63.46074       55.46597

Ca 1.0



