%chk=holoCaM.loop4.water3.frame497.chk
%nprocshared=20
%mem=10GB
%nosave
#b3lyp/svp scf=(tight,noincore,xqc) Test 
#IOP(5/87=12) Density=Current Pop=(MK,readradii) iop(6/33=2) iop(6/42=6)

holoCaM.loop4.water3.frame497 

   -3  1 
C        104.14951       65.14585       27.16612
C        105.15904       64.05054       27.01939
O        105.43513       63.65242       25.89757
H        103.29662       64.79357       27.78092
H        104.62677       66.02068       27.65488
H        103.76988       65.46100       26.16957
N        105.75390       63.50779       28.12125
C        106.77395       62.46917       28.02842
C        107.14773       61.95949       29.41758
O        107.58809       62.75399       30.23714
C        108.04717       63.03487       27.35481
C        109.05528       61.97063       27.04566
O        110.16446       62.28945       26.65077
O        108.72676       60.66788       27.13320
H        105.45738       63.84364       29.05078
H        106.35855       61.63563       27.41962
H        108.49957       63.79142       28.03223
H        107.82469       63.54089       26.39494
N        107.00609       60.64153       29.74307
C        107.34625       60.09458       31.05674
C        108.44938       59.02727       31.00333
O        108.85329       58.59897       32.07670
C        106.05334       59.61278       31.79885
C        105.23624       58.56738       30.98844
C        105.19251       60.84200       32.15613
C        104.01039       58.02145       31.73256
H        106.62520       60.00498       29.03519
H        107.79192       60.89052       31.69227
H        106.36437       59.15009       32.76194
H        105.89235       57.70692       30.73920
H        104.87163       59.01615       30.04302
H        105.79194       61.56587       32.74886
H        104.82228       61.35105       31.24125
H        104.32715       60.56515       32.79033
H        103.27000       58.81944       31.94705
H        103.49512       57.26897       31.09829
H        104.31517       57.53744       32.68367
N        109.00375       58.55832       29.83947
C        110.08833       57.56210       29.81506
C        111.28414       57.91994       28.90797
O        112.22952       57.14406       28.88581
C        109.52577       56.16192       29.48020
C        108.82080       56.03076       28.16262
O        108.64823       56.99319       27.43678
O        108.34719       54.82668       27.79238
H        108.61144       58.87572       28.94563
H        110.51905       57.45586       30.83477
H        108.80159       55.87147       30.27128
H        110.36062       55.42785       29.50472
N        111.34685       59.06357       28.16277
C        112.50615       59.45578       27.35692
C        112.82651       58.59001       26.13784
O        113.80601       58.89503       25.47228
H        110.58051       59.73692       28.22749
H        113.40010       59.48251       28.01718
H        112.34008       60.48811       26.97948
N        112.08304       57.50573       25.78101
C        112.43127       56.60934       24.66733
C        112.45405       57.27407       23.28336
O        113.11040       56.73958       22.40041
C        111.48018       55.38762       24.63448
C        110.08611       55.81840       24.27252
O        109.48122       56.76317       25.01521
O        109.54533       55.38423       23.26861
H        111.28128       57.26817       26.37409
H        113.45700       56.23207       24.87532
H        111.47252       54.89604       25.63066
H        111.84504       54.64896       23.88687
N        111.69932       58.37330       22.99646
C        111.68101       59.03963       21.69620
C        110.33683       58.95861       20.98300
O        110.19645       59.61363       19.96013
H        111.10236       58.75844       23.73455
H        112.44449       58.62118       21.00468
H        111.93981       60.10789       21.86232
N        109.33007       58.14165       21.41454
C        108.04197       57.98364       20.73171
C        106.88648       58.25750       21.72794
O        107.17644       59.40962       22.45802
C        107.94477       56.54474       20.18667
C        109.07468       56.22732       19.19114
C        108.99855       54.82312       18.64139
N        109.91736       54.40578       17.74105
O        108.11600       54.05639       19.00054
H        109.49693       57.56185       22.23997
H        107.95907       58.70065       19.88528
H        106.97910       56.40163       19.66154
H        107.99537       55.82985       21.03801
H        110.06103       56.34365       19.69002
H        109.01780       56.94281       18.34270
H        110.66798       55.03762       17.42556
H        109.87766       53.45022       17.35669
N        105.56020       58.36800       21.09190
C        104.47913       58.73440       22.03879
C        103.68239       57.51192       22.50323
O        102.99260       56.90273       21.69700
C        103.55632       59.78971       21.36772
C        102.47218       60.29071       22.33261
C        104.37017       60.99692       20.87145
H        105.30543       57.51980       20.53865
H        104.90604       59.22975       22.93692
H        103.05923       59.32897       20.48510
H        101.82718       59.45486       22.65692
H        102.93209       60.76685       23.22496
H        101.82021       61.03604       21.83009
H        104.89513       61.49179       21.71675
H        105.12283       60.68366       20.11772
H        103.69976       61.73580       20.38289
N        103.72399       57.11411       23.80876
C        102.91186       56.02515       24.35877
C        101.44427       56.44354       24.42588
O        101.13387       57.58927       24.15761
C        103.44053       55.68776       25.78125
C        102.80688       54.51313       26.48193
N        102.86029       53.27197       25.94772
O        102.26991       54.67873       27.56627
H        104.37327       57.60366       24.43729
H        103.03491       55.13105       23.70922
H        103.33980       56.58879       26.42078
H        104.51186       55.44438       25.70409
H        103.32349       53.10444       25.04375
H        102.44230       52.47351       26.44712
N        100.48217       55.55468       24.78403
C         99.07604       55.90598       25.00183
C         98.90709       56.84297       26.20179
O         98.25571       57.86682       26.04202
C         98.18426       54.63280       25.03273
C         98.71764       53.47804       25.85149
C         99.30713       52.38507       25.18631
C         98.66095       53.47204       27.24921
C         99.85993       51.32816       25.90642
C         99.21010       52.40573       27.97348
C         99.82027       51.33736       27.30538
O        100.36804       50.32955       28.01331
H        100.77568       54.57926       24.90205
H         98.69344       56.46252       24.11445
H         98.16331       54.28888       23.97449
H         97.12864       54.86764       25.29034
H         99.36616       52.36294       24.10475
H         98.19259       54.29190       27.77174
H        100.32846       50.51019       25.37359
H         99.17023       52.41230       29.05491
H        100.81750       49.58745       27.58315
N         99.50842       56.60697       27.40782
C         99.40252       57.51663       28.56086
C        100.03193       58.89628       28.32197
O         99.94796       59.72897       29.21491
C        100.07810       56.91223       29.82188
C         99.47053       55.58841       30.30885
C         98.01570       55.72621       30.66356
O         97.63193       56.59222       31.62097
O         97.17601       55.04902       30.09284
H        100.06187       55.74874       27.50506
H         98.32438       57.67197       28.78536
H         99.99590       57.63576       30.66401
H        101.16049       56.75612       29.61815
H        100.02012       55.25797       31.21593
H         99.61042       54.80730       29.54052
N        100.66030       59.22132       27.15855
C        101.27971       60.51149       26.88751
C        100.40710       61.27497       25.90882
O        100.02000       62.39578       26.20912
C        102.69876       60.28933       26.32195
C        103.59864       59.52087       27.30755
C        104.94634       59.17514       26.72999
O        105.78731       58.39279       27.43050
O        105.27921       59.56293       25.62277
H        100.71243       58.53114       26.40613
H        101.36748       61.12453       27.81310
H        103.16764       61.26896       26.08042
H        102.61890       59.69626       25.38484
H        103.10489       58.56606       27.57774
H        103.73799       60.11703       28.23417
N        100.01535       60.71065       24.73442
C         99.14358       61.37682       23.79476
H         98.18120       61.63348       24.28656
H         99.63101       62.29605       23.41075
H         98.92982       60.69958       22.93920
H        100.31777       59.76064       24.50543
Ca       108.09784       58.32647       24.19874
O        106.76594       56.03441       25.09087
H        106.83034       55.55805       24.22617
H        106.85642       55.32501       25.77344
O        109.81023       60.82940       24.14758
H        110.27694       60.44218       24.93034
H        110.39087       61.57440       23.85477
O        107.15538       61.68273       24.37871
H        107.28296       62.01300       23.45479
H        106.17526       61.60669       24.47763

Ca 1.0



