%chk=holoCaM-CaMKII.loop2.water2.frame497.chk
%nprocshared=20
%mem=10GB
%nosave
#b3lyp/svp scf=(tight,noincore,xqc) Test 
#IOP(5/87=12) Density=Current Pop=(MK,readradii) iop(6/33=2) iop(6/42=6)

holoCaM-CaMKII.loop2.water2.frame497 

   -2  1 
C        -11.78417       75.63272      107.62988
C        -12.23578       75.81882      109.05045
O        -11.44619       75.66870      109.96967
H        -10.72315       75.31412      107.58718
H        -12.41725       74.87192      107.12566
H        -11.88855       76.59638      107.08324
N        -13.51803       76.18514      109.28784
C        -14.06065       76.50422      110.60245
C        -14.12808       75.31920      111.54642
O        -14.60006       74.26575      111.14505
C        -15.47958       77.05402      110.39417
C        -16.11884       77.52775      111.63963
O        -15.45068       78.33068      112.48577
O        -17.28918       77.25530      111.83448
H        -14.13252       76.30225      108.46451
H        -13.44440       77.31024      111.05677
H        -16.13495       76.28966      109.92366
H        -15.43109       77.92956      109.72411
N        -13.77477       75.46931      112.85914
C        -13.99884       74.44756      113.87501
C        -14.81793       74.96810      115.07168
O        -14.95403       74.22542      116.03257
C        -12.65230       73.86233      114.32878
H        -13.37154       76.36063      113.16133
H        -14.56262       73.60383      113.43263
H        -12.00733       73.65294      113.44708
H        -12.10445       74.53176      115.02438
H        -12.83349       72.88899      114.83661
N        -15.36672       76.22433      115.11157
C        -16.01899       76.78062      116.30690
C        -17.24677       77.67452      116.04236
O        -17.81181       78.17948      117.00349
C        -14.95689       77.54826      117.11273
C        -14.17282       78.50041      116.25474
O        -12.95373       78.48709      116.29642
O        -14.77367       79.15389      115.25186
H        -15.17905       76.86176      114.33324
H        -16.40127       75.96122      116.94903
H        -14.23318       76.80169      117.50359
H        -15.41793       78.05819      117.98524
N        -17.73679       77.89327      114.79356
C        -18.91635       78.70292      114.48927
C        -18.75358       80.19507      114.74328
O        -19.73619       80.91392      114.62944
H        -17.28754       77.39957      114.03614
H        -19.75299       78.33620      115.12172
H        -19.20384       78.55611      113.42628
N        -17.56892       80.72212      115.15126
C        -17.42873       82.05635      115.71878
C        -17.53597       83.20365      114.71098
O        -17.47230       84.34852      115.13912
C        -16.12461       82.14780      116.55239
C        -14.85867       82.14183      115.76533
N        -13.68606       82.35631      116.39123
O        -14.87968       81.97479      114.56247
H        -16.77233       80.09987      115.20380
H        -18.23856       82.16573      116.46902
H        -16.07309       81.31030      117.28336
H        -16.13874       83.10264      117.11489
H        -13.64030       82.48751      117.41101
H        -12.83029       82.43538      115.84085
N        -17.71203       82.98790      113.37387
C        -17.85281       84.06225      112.39986
C        -16.52873       84.58427      111.86954
O        -16.53921       85.58693      111.17039
H        -17.81462       82.02918      113.03031
H        -18.46401       84.88071      112.83840
H        -18.41240       83.67808      111.52140
N        -15.36040       83.92564      112.10591
C        -14.05014       84.35769      111.63299
C        -13.08027       83.20464      111.45841
O        -13.13498       82.22716      112.18655
C        -13.38552       85.34580      112.63634
C        -13.98108       86.73215      112.51203
O        -13.48077       84.93925      113.98418
H        -15.40946       83.04806      112.61506
H        -14.14437       84.81161      110.62093
H        -12.30766       85.44234      112.37509
H        -13.66716       83.97185      114.02609
H        -13.36925       87.43846      113.10986
H        -13.95284       87.05064      111.44832
H        -15.02231       86.74203      112.88787
N        -12.05207       83.34638      110.57664
C        -10.90641       82.45140      110.54913
C        -10.03667       82.71703      111.76703
O         -9.66135       83.85196      112.02964
C        -10.15533       82.50816      109.16814
C        -10.65605       81.33853      108.26376
C         -8.62581       82.36802      109.32620
C        -10.33618       81.50375      106.77709
H        -12.00957       84.21046      110.01293
H        -11.25814       81.41120      110.65121
H        -10.35157       83.49412      108.69229
H        -11.75668       81.21033      108.33729
H        -10.19446       80.39309      108.63645
H         -8.38855       81.40388      109.82044
H         -8.10525       82.40055      108.35151
H         -8.21016       83.19603      109.93752
H         -9.27038       81.73264      106.58649
H        -10.58143       80.56020      106.24283
H        -10.96583       82.31465      106.35488
N         -9.60656       81.64829      112.49126
C         -8.66778       81.69830      113.59438
C         -7.32375       81.21296      113.10570
O         -7.24308       80.76539      111.98374
C         -9.16849       80.81866      114.75069
C        -10.48568       81.29255      115.23366
O        -11.59744       80.79108      114.67887
O        -10.55588       81.95916      116.25266
H         -9.86335       80.71890      112.16552
H         -8.53827       82.74575      113.93388
H         -8.45454       80.85830      115.59426
H         -9.27279       79.74419      114.46378
N         -6.20394       81.34407      113.86307
C         -4.85881       80.99471      113.39432
C         -4.68194       79.51777      113.08532
O         -4.25768       79.23467      111.97244
C         -3.80265       81.49803      114.39376
C         -2.35320       81.35265      113.95691
C         -1.92558       81.71082      112.66057
C         -1.38979       80.92089      114.88819
C         -0.57182       81.64651      112.31512
C         -0.03415       80.87830      114.54210
C          0.37461       81.24455      113.25844
H         -6.31033       81.79205      114.78434
H         -4.69348       81.55904      112.44976
H         -3.95763       81.03449      115.38958
H         -3.98598       82.58661      114.50963
H         -2.62423       82.04467      111.90783
H         -1.67899       80.65122      115.89595
H         -0.25429       81.92478      111.31812
H          0.70324       80.57449      115.27415
H          1.42498       81.22217      112.99566
N         -4.99343       78.50292      113.95475
C         -4.85242       77.09713      113.59177
C         -5.73060       76.69773      112.40779
O         -5.51674       75.62748      111.85696
C         -5.19785       76.34546      114.88282
C         -6.13039       77.30789      115.59940
C         -5.51330       78.66608      115.29728
H         -3.79719       76.88466      113.30644
H         -5.60151       75.31877      114.74582
H         -4.27613       76.29050      115.50184
H         -7.11831       77.26882      115.08902
H         -6.27604       77.10911      116.68385
H         -6.31314       79.42520      115.38914
H         -4.66944       78.89239      115.98481
N         -6.71000       77.51870      111.94349
C         -7.51350       77.25965      110.75611
C         -6.76058       77.77105      109.53248
O         -6.61500       77.04432      108.56089
C         -8.88916       77.94082      110.91370
C         -9.60598       77.44493      112.19510
C        -10.89965       78.12404      112.45629
O        -11.61905       77.78873      113.53577
O        -11.28567       79.01425      111.73637
H         -6.90727       78.38312      112.45995
H         -7.72282       76.17172      110.65113
H         -9.51856       77.71219      110.02528
H         -8.76064       79.03989      110.96118
H         -8.99516       77.65090      113.09636
H         -9.79721       76.35551      112.11916
N         -6.21481       79.01857      109.54586
C         -5.38754       79.57914      108.50499
H         -4.43434       79.01397      108.44234
H         -5.91730       79.57783      107.53287
H         -5.13646       80.63211      108.77191
H         -6.34078       79.59791      110.36696
Ca       -13.39056       79.92993      113.70799
O        -15.92266       80.80722      112.02257
H        -15.29889       80.98681      111.28240
H        -16.78018       80.62192      111.57001
O        -13.73507       79.63332      110.24387
H        -13.74792       79.56736      109.26220
H        -12.81176       79.88524      110.42910

Ca 1.0



