%chk=holoCaM-CaMKII.loop2.water2.frame338.chk
%nprocshared=20
%mem=10GB
%nosave
#b3lyp/svp scf=(tight,noincore,xqc) Test 
#IOP(5/87=12) Density=Current Pop=(MK,readradii) iop(6/33=2) iop(6/42=6)

holoCaM-CaMKII.loop2.water2.frame338 

   -2  1 
C         37.91393       61.45986       65.95888
C         38.35617       62.74504       66.60517
O         39.06265       63.51518       65.97479
H         37.31880       61.68679       65.04824
H         38.79616       60.85093       65.67488
H         37.27591       60.85870       66.64225
N         37.95262       63.05173       67.86680
C         38.24957       64.31668       68.53126
C         39.73638       64.53414       68.77157
O         40.39771       63.64152       69.28267
C         37.51313       64.37791       69.88111
C         37.70934       65.71216       70.53557
O         37.36371       66.72783       69.95657
O         38.29372       65.79590       71.74491
H         37.35413       62.37045       68.35979
H         37.84321       65.14117       67.90903
H         37.88007       63.57060       70.55114
H         36.42427       64.23172       69.71655
N         40.28899       65.76050       68.52677
C         41.67129       66.11216       68.84014
C         41.77914       67.23663       69.87498
O         42.89977       67.55751       70.24728
C         42.37212       66.56517       67.55384
H         39.68571       66.49427       68.13187
H         42.20769       65.22747       69.24462
H         42.31110       65.77412       66.77802
H         41.89236       67.48759       67.16115
H         43.44179       66.79356       67.74655
N         40.68858       67.92520       70.33251
C         40.78462       69.11330       71.17834
C         39.81947       69.08547       72.36656
O         40.28154       69.27039       73.48437
C         40.68582       70.39780       70.31563
C         39.50533       70.58522       69.39137
O         38.54460       69.65822       69.24492
O         39.45008       71.59705       68.71163
H         39.76205       67.68053       69.97383
H         41.80569       69.19028       71.61892
H         41.58480       70.41618       69.65928
H         40.75331       71.27586       70.99424
N         38.48255       68.85461       72.21615
C         37.52013       68.84689       73.31211
C         36.33281       69.76944       73.06850
O         35.44575       69.79486       73.90986
H         38.11952       68.62839       71.28863
H         37.99791       69.12744       74.27606
H         37.12469       67.81461       73.41666
N         36.23826       70.55860       71.95698
C         35.12924       71.48134       71.70070
C         33.78127       70.81297       71.37634
O         32.82317       71.54129       71.15617
C         35.54188       72.49890       70.61078
C         35.85689       71.93836       69.24660
N         36.30024       72.77834       68.28407
O         35.73566       70.74631       69.00525
H         37.02530       70.56809       71.29581
H         34.98086       72.09573       72.61659
H         36.45899       73.01546       70.97201
H         34.74661       73.26648       70.49969
H         36.41774       73.78326       68.47785
H         36.54344       72.43252       67.34940
N         33.60399       69.45869       71.37824
C         32.30586       68.81132       71.19780
C         31.75768       68.78344       69.77661
O         30.69604       68.20363       69.59782
H         34.39355       68.84926       71.62205
H         31.56450       69.27527       71.88538
H         32.41056       67.74670       71.49963
N         32.40581       69.34996       68.72005
C         31.92699       69.28833       67.33649
C         32.99735       68.70181       66.43852
O         34.10646       69.20345       66.45979
C         31.56100       70.70312       66.82937
C         30.26788       71.20167       67.47155
O         32.59098       71.62346       67.09517
H         33.28485       69.85520       68.89185
H         31.01420       68.65936       67.23796
H         31.35177       70.66051       65.73288
H         33.24201       71.56575       66.34939
H         30.37063       71.27096       68.57386
H         30.01129       72.20255       67.06464
H         29.43410       70.50720       67.22667
N         32.72234       67.68255       65.56986
C         33.70881       67.17081       64.61197
C         34.15159       68.31900       63.70768
O         33.30067       68.96789       63.11605
C         33.15120       65.97939       63.75483
C         32.67983       64.80097       64.65577
C         34.23809       65.48671       62.76957
C         32.09803       63.61277       63.88009
H         31.76521       67.30309       65.55766
H         34.58477       66.77913       65.17083
H         32.28109       66.34023       63.16215
H         31.87730       65.14717       65.33600
H         33.52359       64.43558       65.27831
H         35.12178       65.09909       63.32164
H         33.85695       64.69214       62.09878
H         34.56644       66.30129       62.09827
H         31.25536       63.94208       63.23594
H         32.86721       63.11334       63.25696
H         31.72072       62.85318       64.59681
N         35.47782       68.59054       63.52938
C         35.97460       69.65052       62.65699
C         36.39635       69.05527       61.31860
O         36.32593       67.85149       61.14058
C         37.12948       70.43673       63.33280
C         36.67676       71.28644       64.49986
O         36.27716       70.75062       65.67072
O         36.69514       72.50230       64.39161
H         36.16733       67.95397       63.94660
H         35.15820       70.36410       62.41064
H         37.54674       71.13899       62.58105
H         37.95643       69.75849       63.63861
N         36.78136       69.87742       60.29675
C         37.05812       69.39532       58.94573
C         38.16158       68.34880       58.89108
O         37.89525       67.30142       58.31090
C         37.36379       70.56410       57.98437
C         37.54295       70.05896       56.56862
C         36.48599       69.40675       55.90537
C         38.77229       70.21572       55.90657
C         36.66089       68.91340       54.61033
C         38.94163       69.72173       54.60891
C         37.88800       69.06946       53.96260
H         36.82005       70.89151       60.46776
H         36.12255       68.92076       58.57762
H         38.27073       71.10132       58.32642
H         36.52330       71.29104       57.99849
H         35.52730       69.27291       56.38997
H         39.60175       70.71035       56.39613
H         35.84475       68.40707       54.11091
H         39.89193       69.84044       54.10534
H         38.02185       68.68398       52.96032
N         39.40801       68.50233       59.43207
C         40.42860       67.46888       59.37290
C         39.99214       66.21694       60.12615
O         40.22500       65.12631       59.62893
C         41.67627       68.15976       59.94117
C         41.10695       69.16974       60.90967
C         39.87969       69.67565       60.15384
H         40.67551       67.17157       58.32785
H         42.46466       67.48398       60.33612
H         42.12592       68.76294       59.11856
H         40.77906       68.61832       61.81337
H         41.80595       69.96840       61.23853
H         39.16815       70.07131       60.90190
H         40.15821       70.45529       59.41384
N         39.32278       66.29755       61.31029
C         38.91767       65.11841       62.07952
C         37.83960       64.29561       61.38339
O         37.58103       63.18748       61.83414
C         38.40162       65.55064       63.46270
C         39.50103       66.27781       64.26169
C         38.97604       66.93318       65.49249
O         39.63756       67.81013       66.02299
O         37.72628       66.71183       65.92266
H         39.10118       67.23088       61.67730
H         39.81458       64.47691       62.22578
H         38.03584       64.67747       64.04029
H         37.53825       66.23127       63.29856
H         39.90183       67.11033       63.65347
H         40.34785       65.60412       64.50780
N         37.14782       64.77271       60.31075
C         36.12600       64.02616       59.60713
H         35.15882       64.56649       59.68014
H         36.40873       63.94629       58.53617
H         35.99305       63.00177       60.01199
H         37.32791       65.72256       59.97653
Ca        36.68568       68.63073       66.25800
O         34.95674       65.15663       67.50613
H         35.00177       64.16878       67.53345
H         35.59686       65.41262       66.79734
O         34.79366       67.49343       69.37652
H         33.98567       67.11939       68.94745
H         34.84732       67.01674       70.24264

Ca 1.0



