%chk=holoCaM.loop2.water1.frame168.chk
%nprocshared=20
%mem=10GB
%nosave
#b3lyp/svp scf=(tight,noincore,xqc) Test 
#IOP(5/87=12) Density=Current Pop=(MK,readradii) iop(6/33=2) iop(6/42=6)

holoCaM.loop2.water1.frame168 

   -2  1 
C         21.07114       77.91087      -12.57265
C         22.10327       77.31277      -11.66080
O         21.91697       77.30974      -10.45294
H         20.20247       78.29587      -11.99829
H         21.51950       78.73910      -13.15907
H         20.70742       77.12953      -13.27579
N         23.21163       76.73727      -12.19645
C         24.20585       76.02106      -11.40830
C         25.05073       76.95915      -10.54950
O         25.69116       77.83966      -11.10776
C         25.14026       75.24460      -12.36068
C         26.02191       74.27057      -11.64046
O         26.88145       73.66281      -12.25675
O         25.81917       73.99793      -10.33861
H         23.29835       76.73581      -13.22543
H         23.66971       75.27355      -10.78857
H         25.76233       75.96797      -12.93138
H         24.54136       74.65266      -13.08608
N         25.14663       76.79057       -9.19576
C         26.03376       77.58693       -8.34678
C         27.06349       76.74145       -7.58504
O         27.90289       77.33973       -6.92579
C         25.19394       78.40015       -7.35726
H         24.57580       76.06188       -8.75186
H         26.60870       78.30770       -8.96791
H         24.61550       77.72652       -6.68921
H         25.84561       79.05043       -6.73394
H         24.48511       79.05280       -7.91002
N         27.06262       75.37151       -7.59615
C         28.01341       74.54901       -6.84041
C         28.82054       73.58199       -7.71639
O         29.66007       72.87871       -7.17071
C         27.26579       73.81331       -5.70492
C         26.08391       73.00059       -6.16291
O         24.85275       73.29378       -5.70357
O         26.22610       72.07079       -6.93535
H         26.33091       74.87425       -8.11476
H         28.77189       75.19182       -6.34169
H         26.89034       74.58056       -4.99353
H         27.97325       73.16151       -5.14727
N         28.67201       73.51932       -9.07092
C         29.50145       72.70034       -9.94641
C         29.37653       71.19026       -9.80478
O         30.09993       70.51403      -10.52357
H         28.01087       74.15159       -9.52941
H         30.56447       72.98194       -9.78286
H         29.25193       72.94575      -11.00151
N         28.53408       70.56822       -8.92542
C         28.53231       69.11142       -8.76888
C         28.05513       68.35069      -10.00708
O         28.26287       67.14558      -10.04872
C         27.73973       68.65438       -7.52268
C         26.24805       68.88580       -7.57179
N         25.47381       68.41343       -6.56881
O         25.73015       69.47531       -8.50850
H         27.94450       71.13519       -8.30977
H         29.59052       68.81816       -8.58186
H         28.14874       69.15672       -6.61918
H         27.90048       67.56065       -7.40179
H         25.89191       67.90861       -5.77423
H         24.45295       68.52805       -6.59279
N         27.40846       68.96735      -11.04037
C         27.02090       68.27758      -12.26290
C         25.53152       68.31863      -12.55021
O         25.18368       68.33506      -13.72272
H         27.20861       69.97061      -10.97765
H         27.35109       67.21760      -12.27507
H         27.54877       68.77423      -13.10637
N         24.59273       68.23972      -11.55995
C         23.14841       68.21931      -11.82709
C         22.39930       69.28736      -11.05476
O         22.93297       69.85700      -10.12100
C         22.53999       66.83878      -11.47605
C         22.86715       65.77730      -12.53050
O         22.93012       66.42586      -10.18760
H         24.91273       68.16991      -10.58344
H         22.95164       68.43200      -12.90135
H         21.43023       66.90847      -11.48449
H         23.86508       66.09205      -10.24346
H         22.44378       66.09181      -13.50974
H         23.96116       65.63383      -12.63785
H         22.39304       64.81418      -12.24520
N         21.11849       69.58844      -11.41884
C         20.25153       70.55527      -10.74460
C         19.95174       70.07341       -9.33072
O         19.54147       68.93381       -9.15718
C         18.94440       70.77219      -11.58777
C         19.31398       71.48238      -12.92567
C         17.89027       71.59812      -10.82000
C         18.15182       71.64412      -13.90881
H         20.73685       69.08917      -12.23748
H         20.75389       71.54752      -10.69018
H         18.49030       69.77890      -11.80256
H         20.09602       70.90218      -13.45733
H         19.73378       72.48985      -12.70718
H         16.95617       71.70378      -11.40746
H         17.59348       71.07992       -9.88645
H         18.27730       72.60788      -10.57184
H         17.73237       70.65177      -14.17556
H         17.35040       72.29145      -13.50075
H         18.52494       72.13068      -14.83576
N         20.06248       70.93904       -8.28099
C         19.71223       70.62054       -6.90390
C         18.38849       71.29711       -6.57266
O         17.82823       71.97393       -7.42292
C         20.81628       71.08889       -5.90874
C         22.11512       70.30945       -5.94986
O         23.01411       70.45870       -6.94512
O         22.40467       69.59186       -5.00494
H         20.29129       71.92108       -8.48482
H         19.54610       69.52841       -6.77562
H         20.41977       70.94892       -4.88201
H         21.02021       72.17680       -6.02020
N         17.80488       71.12155       -5.35678
C         16.52612       71.71165       -4.97392
C         16.54516       73.24578       -5.05861
O         15.71104       73.75276       -5.79423
C         16.08326       71.13288       -3.60832
C         14.86449       71.78328       -3.00151
C         13.63516       71.82537       -3.68186
C         14.95420       72.33937       -1.71264
C         12.51859       72.41652       -3.07799
C         13.83699       72.92190       -1.11263
C         12.61941       72.96125       -1.79408
H         18.28024       70.50781       -4.67723
H         15.75316       71.36668       -5.70010
H         16.91393       71.17267       -2.88329
H         15.87661       70.04954       -3.75174
H         13.53828       71.40187       -4.67316
H         15.88819       72.31373       -1.16455
H         11.57240       72.44889       -3.60210
H         13.91695       73.33868       -0.11684
H         11.75469       73.41192       -1.32468
N         17.41795       74.07243       -4.38901
C         17.37821       75.53315       -4.50186
C         17.57155       76.09135       -5.90526
O         17.36994       77.28348       -6.09276
C         18.56395       75.99811       -3.65067
C         18.64169       74.91714       -2.60375
C         18.42219       73.65632       -3.43679
H         16.39857       75.85820       -4.08494
H         19.50384       75.90797       -4.24633
H         18.48369       77.04099       -3.27640
H         19.56973       74.91253       -1.99489
H         17.76565       75.04990       -1.92714
H         19.33384       73.34528       -3.99277
H         18.09702       72.87620       -2.73506
N         18.00889       75.30499       -6.92496
C         18.27495       75.78815       -8.27368
C         17.04530       75.58189       -9.13294
O         16.73706       76.45077       -9.93631
C         19.54567       75.11278       -8.83495
C         20.74301       75.44948       -7.92267
C         22.01667       74.75165       -8.26327
O         22.12700       73.94427       -9.32653
O         22.93732       74.79997       -7.46421
H         18.21943       74.31736       -6.73351
H         18.48855       76.88094       -8.26032
H         19.75179       75.46285       -9.86986
H         19.38735       74.01357       -8.86536
H         20.49987       75.11375       -6.89216
H         20.92490       76.54376       -7.90496
N         16.22311       74.51382       -8.93486
C         14.96340       74.36465       -9.62566
H         14.31396       75.24106       -9.41000
H         15.13233       74.27839      -10.71758
H         14.44260       73.45233       -9.26224
H         16.46523       73.80167       -8.23775
Ca        22.68695       71.95702       -8.55100
O         24.80499       71.43706      -11.25632
H         24.46884       71.26510      -12.17046
H         25.77758       71.55194      -11.37322

Ca 1.0



