%chk=holoCaM.loop3.water2.frame316.chk
%nprocshared=20
%mem=10GB
%nosave
#b3lyp/svp scf=(tight,noincore,xqc) Test 
#IOP(5/87=12) Density=Current Pop=(MK,readradii) iop(6/33=2) iop(6/42=6)

holoCaM.loop3.water2.frame316 

   0  1 
C          4.00608       40.01110       82.26607
C          4.62694       41.36239       82.46467
O          4.02058       42.19006       83.12661
H          3.03199       40.12794       81.74594
H          4.65483       39.35196       81.65174
H          3.83907       39.52697       83.25085
N          5.84619       41.64785       81.92534
C          6.51987       42.93646       82.04508
C          6.01685       43.91052       80.98541
O          6.76841       44.27474       80.08988
C          8.05095       42.72707       81.94679
C          8.77409       44.04607       82.00631
O          9.44854       44.40813       81.05837
O          8.65645       44.84498       83.08029
H          6.33443       40.89730       81.41282
H          6.33837       43.38061       83.04739
H          8.29784       42.22075       80.98881
H          8.39225       42.07421       82.77398
N          4.75685       44.41528       81.04176
C          4.30900       45.46049       80.13377
C          4.84545       46.81550       80.56458
O          4.96920       47.68199       79.71000
C          2.77966       45.43044       79.99121
C          2.36775       44.12062       79.29677
C          0.85320       43.94950       79.20200
C          0.52423       42.69201       78.38296
N         -0.91584       42.45337       78.33440
H          4.12566       44.12593       81.79867
H          4.73064       45.25966       79.12155
H          2.43616       46.28227       79.36455
H          2.31137       45.51877       80.99661
H          2.77622       43.24462       79.84772
H          2.80325       44.12459       78.27235
H          0.39845       44.83484       78.70743
H          0.43804       43.85549       80.22958
H          1.02409       41.80385       78.83079
H          0.91123       42.82278       77.34672
H         -1.10121       41.61977       77.73080
H         -1.27467       42.26023       79.29756
H         -1.40745       43.28294       77.93029
N          5.22420       47.06918       81.85607
C          5.85974       48.33025       82.24161
C          7.25046       48.48606       81.61890
O          7.78548       49.58582       81.65141
C          5.90645       48.51807       83.77586
C          6.75577       47.51836       84.51334
O          6.48428       46.32867       84.49917
O          7.79351       47.95100       85.25062
H          5.03753       46.35735       82.57410
H          5.21357       49.14907       81.85305
H          4.87282       48.46975       84.18051
H          6.30198       49.53547       83.99084
N          7.88729       47.43688       81.02148
C          9.13953       47.54302       80.29322
C         10.29980       48.01937       81.13386
O         10.91184       49.00613       80.75205
H          7.45145       46.50728       81.03894
H          8.99524       48.22465       79.42657
H          9.40027       46.54987       79.87590
N         10.67569       47.36637       82.27507
C         11.82680       47.77551       83.07927
C         12.86663       46.66735       83.25610
O         13.94446       46.97279       83.74884
C         11.35500       48.34678       84.43172
C         10.93942       47.30295       85.44329
N         11.51915       47.27718       86.66652
O         10.07530       46.48570       85.16911
H         10.10797       46.57954       82.59140
H         12.33926       48.60823       82.55273
H         10.50854       49.04313       84.24313
H         12.18273       48.94586       84.86714
H         12.24094       47.96580       86.92607
H         11.24045       46.57566       87.36639
N         12.62179       45.36646       82.91024
C         13.60997       44.30286       83.01193
C         13.26756       43.25863       84.05479
O         13.97661       42.26393       84.10818
H         11.69937       45.08979       82.54962
H         14.61879       44.69517       83.26394
H         13.68308       43.81514       82.01602
N         12.25989       43.43208       84.96237
C         11.98417       42.47837       86.03903
C         10.48689       42.08142       86.04597
O          9.95860       42.16419       84.77250
C         12.36556       43.16290       87.36762
C         13.84243       43.49990       87.37375
C         14.28228       44.82697       87.21657
C         14.79585       42.47787       87.50853
C         15.64945       45.12170       87.18396
C         16.16208       42.77600       87.49080
C         16.59362       44.09963       87.32325
O         17.90814       44.39955       87.29244
H         11.70821       44.30186       84.94646
H         12.59041       41.55538       85.90792
H         12.12477       42.53678       88.25333
H         11.76256       44.09535       87.44771
H         13.57285       45.63210       87.09606
H         14.47902       41.45037       87.63308
H         15.97585       46.14548       87.04602
H         16.88378       41.97691       87.60240
H         18.59342       43.72215       87.38509
N         10.24646       40.72055       86.53148
C          8.82541       40.50854       86.90398
C          8.68280       40.32997       88.40349
O          9.44076       39.57366       88.99715
C          8.16559       39.32966       86.11838
C          8.89356       37.97786       86.32174
C          8.03458       39.68593       84.62366
C          8.15104       36.78987       85.70020
H         10.91636       40.45477       87.28885
H          8.20451       41.39470       86.63188
H          7.12642       39.22768       86.50877
H          8.96741       37.76001       87.40510
H          9.92103       38.03148       85.90196
H          9.03121       39.78349       84.14632
H          7.44811       38.92409       84.07182
H          7.47917       40.63999       84.50663
H          8.08592       36.87300       84.59701
H          8.69750       35.85162       85.93079
H          7.12630       36.71338       86.12391
N          7.67762       40.95698       89.07381
C          7.45049       40.76523       90.49752
C          6.39313       39.71006       90.71297
O          5.79530       39.25361       89.74789
C          7.04836       42.09741       91.15443
O          5.81996       42.55765       90.64968
H          6.98249       41.48944       88.53217
H          8.38248       40.39857       90.98072
H          7.84732       42.85955       91.00532
H          6.93812       41.96528       92.25042
H          6.01870       43.17978       89.90302
N          6.12793       39.24059       91.96247
C          5.08895       38.25000       92.20913
C          3.70956       38.82580       91.92351
O          2.80275       38.06644       91.61988
C          5.15252       37.74477       93.65080
H          6.69199       39.59190       92.75312
H          5.27464       37.37691       91.54183
H          6.15301       37.30146       93.84662
H          4.98535       38.58015       94.36365
H          4.38445       36.96054       93.81902
N          3.48361       40.17030       92.02011
C          2.20387       40.79895       91.71082
C          1.86245       40.58669       90.25260
O          0.78034       40.09829       89.95383
C          2.27250       42.30212       92.00941
H          4.25701       40.77992       92.32219
H          1.40850       40.37054       92.36008
H          2.51171       42.45970       93.08290
H          3.05426       42.79974       91.39690
H          1.29185       42.77831       91.79645
N          2.77826       40.89242       89.29175
C          2.58089       40.66220       87.86377
C          2.19776       39.21384       87.62181
O          1.15060       38.97460       87.03765
C          3.86788       41.02623       87.08721
C          4.13454       42.54271       87.11246
C          5.45489       42.87737       86.48744
O          5.69635       42.54411       85.34150
O          6.38049       43.55651       87.19058
H          3.68902       41.25905       89.60836
H          1.75123       41.30314       87.48721
H          3.76875       40.71573       86.02310
H          4.72839       40.47536       87.52747
H          4.14071       42.93068       88.15140
H          3.32431       43.06046       86.55473
N          2.97342       38.19882       88.09236
C          2.62448       36.79917       87.96277
H          1.67225       36.64766       87.41254
H          3.43434       36.26476       87.42585
H          2.51183       36.35931       88.97661
H          3.83708       38.42225       88.59945
Ca         8.40274       43.77431       84.98268
O          6.31748       46.48749       87.74384
H          5.49773       46.98066       87.48911
H          6.16749       46.22263       88.68607
O          9.08547       45.22819       88.36383
H          9.06344       44.50852       89.04325
H          9.27435       46.05180       88.88058

Ca 1.0



