%chk=holoCaM-CaMKII.loop4.water2.frame288.chk
%nprocshared=20
%mem=10GB
%nosave
#b3lyp/svp scf=(tight,noincore,xqc) Test 
#IOP(5/87=12) Density=Current Pop=(MK,readradii) iop(6/33=2) iop(6/42=6)

holoCaM-CaMKII.loop4.water2.frame288 

   -3  1 
C         51.71137       43.85483       83.88472
C         50.83975       44.24762       85.04437
O         49.74733       44.74265       84.82535
H         52.67362       43.41744       84.22889
H         51.18972       43.10177       83.25939
H         51.94085       44.75103       83.27122
N         51.27425       44.05485       86.31696
C         50.52655       44.41844       87.51921
C         50.24849       45.92337       87.55805
O         51.17912       46.70572       87.42803
C         51.34881       43.94434       88.73648
C         50.75388       44.30398       90.05483
O         51.48173       45.01971       90.92983
O         49.63653       43.92731       90.35652
H         52.20314       43.61954       86.43510
H         49.55945       43.86571       87.53626
H         52.37023       44.37900       88.69077
H         51.43855       42.83574       88.68799
N         48.97365       46.38520       87.75334
C         48.58066       47.79670       87.73363
C         48.21985       48.31767       89.12400
O         48.27228       49.53049       89.28345
C         47.38373       47.99883       86.73276
C         47.82422       47.64304       85.29129
C         46.78160       49.42243       86.78018
C         46.68419       47.64240       84.26711
H         48.23492       45.69467       87.91583
H         49.44570       48.41489       87.40399
H         46.57197       47.30011       87.03759
H         48.24095       46.62023       85.29264
H         48.61709       48.34604       84.95420
H         47.53986       50.18497       86.50626
H         45.90799       49.51683       86.10624
H         46.37146       49.64988       87.78489
H         47.07592       47.31756       83.28042
H         45.88707       46.93816       84.57991
H         46.24536       48.65020       84.12969
N         47.83396       47.51644       90.16530
C         47.43041       48.07846       91.46114
C         48.37330       47.70705       92.60248
O         48.20428       48.25448       93.68291
C         45.93957       47.77891       91.74308
C         45.58632       46.33255       91.94282
O         46.53451       45.38420       91.97253
O         44.41866       46.01560       92.10423
H         47.78681       46.49699       90.03046
H         47.49093       49.18668       91.41774
H         45.35162       48.16399       90.88034
H         45.61534       48.33402       92.64953
N         49.41381       46.83943       92.43629
C         50.45977       46.63141       93.43378
C         50.45051       45.25876       94.08011
O         51.37786       44.96919       94.82273
H         49.51457       46.34547       91.54268
H         50.39516       47.37618       94.25428
H         51.43602       46.79771       92.92825
N         49.41321       44.39076       93.91803
C         49.30469       43.11503       94.63660
C         50.25765       42.02111       94.14789
O         50.20929       40.93120       94.70188
C         47.83186       42.63782       94.65083
C         47.20889       42.44599       93.29764
O         47.93481       42.61338       92.17989
O         46.01110       42.22938       93.21319
H         48.61456       44.70707       93.35349
H         49.54546       43.29949       95.70764
H         47.24542       43.43289       95.16341
H         47.72930       41.70736       95.24899
N         51.18336       42.23526       93.17013
C         52.16743       41.23822       92.77499
C         51.64006       40.14219       91.87304
O         52.45697       39.33131       91.45499
H         51.27294       43.16561       92.74666
H         52.65909       40.81065       93.67701
H         52.95665       41.75328       92.18540
N         50.33312       40.05440       91.48580
C         49.86593       39.08004       90.50254
C         49.24431       39.77868       89.30866
O         49.08145       40.99396       89.32005
C         48.84603       38.10483       91.12156
C         49.46943       37.23005       92.21509
C         48.47961       36.19631       92.69021
N         48.07610       36.15981       93.98029
O         48.04061       35.37497       91.89785
H         49.64351       40.71806       91.86393
H         50.71747       38.48248       90.10720
H         48.47386       37.42615       90.32417
H         47.97700       38.66715       91.52961
H         49.80524       37.87308       93.05656
H         50.35534       36.69527       91.80772
H         48.43296       36.83994       94.66621
H         47.40055       35.44677       94.29350
N         48.89423       39.04472       88.21695
C         48.28563       39.59362       87.01563
C         46.96290       38.87935       86.77866
O         46.91183       37.65789       86.85724
C         49.24241       39.44106       85.80371
C         48.65822       40.13129       84.55759
C         50.61662       40.06407       86.10500
H         49.09345       38.03123       88.22167
H         48.10587       40.68563       87.13180
H         49.39160       38.36112       85.58407
H         48.51990       41.21909       84.74406
H         49.34067       40.01261       83.69020
H         47.68167       39.68994       84.28002
H         50.51683       41.14529       86.34403
H         51.10078       39.55282       86.96305
H         51.28861       39.95310       85.22757
N         45.86012       39.58791       86.43007
C         44.54334       39.02622       86.17746
C         44.27132       39.11342       84.68524
O         45.09503       39.65260       83.96406
C         43.52722       39.84762       87.02007
C         42.09059       39.40002       86.93520
N         41.72166       38.16590       87.34668
O         41.24354       40.17198       86.51081
H         45.96887       40.59011       86.25766
H         44.51202       37.95503       86.47257
H         43.58751       40.91429       86.70217
H         43.82498       39.80184       88.08963
H         42.41668       37.50672       87.72396
H         40.73455       37.87290       87.29345
N         43.14707       38.59811       84.13095
C         42.82068       38.76732       82.71768
C         42.72200       40.25029       82.38374
O         43.33930       40.69447       81.42685
C         41.48944       38.05687       82.41251
C         41.01275       38.32038       81.00548
C         41.77972       37.93904       79.89080
C         39.78811       38.97658       80.80540
C         41.32519       38.21719       78.59732
C         39.33613       39.25091       79.51507
C         40.10376       38.87338       78.40517
O         39.67785       39.13743       77.15408
H         42.48398       38.09473       84.73838
H         43.61203       38.30450       82.08538
H         40.72462       38.41514       83.13650
H         41.61229       36.96283       82.56810
H         42.72916       37.43455       80.02044
H         39.18363       39.28287       81.65026
H         41.92395       37.92514       77.74377
H         38.39046       39.76020       79.38197
H         38.83928       39.59025       76.98402
N         41.98714       41.07118       83.18127
C         41.82400       42.50880       82.98407
C         43.16140       43.20144       82.77935
O         43.32570       43.90044       81.78877
C         41.09637       43.08459       84.22488
C         40.79973       44.58648       84.14014
C         40.11316       45.05251       85.39436
O         39.03510       44.58023       85.71992
O         40.68769       45.99242       86.16924
H         41.54102       40.64244       84.00469
H         41.19493       42.68194       82.08297
H         41.71531       42.89360       85.13110
H         40.13257       42.54271       84.34893
H         40.14657       44.79357       83.26605
H         41.74812       45.15293       84.02097
N         44.15806       43.05191       83.68906
C         45.44660       43.73660       83.59978
C         46.17843       43.30088       82.33792
O         46.45421       44.14207       81.49422
C         46.26555       43.46865       84.88538
C         45.51640       44.01026       86.12939
C         46.09208       43.54035       87.42666
O         46.34392       44.39295       88.42123
O         46.20617       42.35293       87.65383
H         43.97415       42.42191       84.48355
H         45.27162       44.83370       83.54627
H         47.26778       43.94200       84.82513
H         46.40747       42.37442       84.97506
H         44.47441       43.64291       86.14872
H         45.47292       45.11883       86.10025
N         46.47893       41.99008       82.12649
C         47.08501       41.47518       80.91502
H         48.03507       40.95886       81.16450
H         46.39419       40.73783       80.45057
H         47.29181       42.27143       80.17055
H         46.24465       41.30941       82.85159
Ca        46.94352       43.30790       90.29227
O         45.49981       40.46223       90.48006
H         45.78618       40.26626       91.40709
H         44.51331       40.52609       90.53531
O         43.76764       43.24809       89.95218
H         43.53991       42.85478       89.07233
H         44.00885       44.18682       89.75004

Ca 1.0



