%chk=holoCaM-CaMKII.loop2.water2.frame379.chk
%nprocshared=20
%mem=10GB
%nosave
#b3lyp/svp scf=(tight,noincore,xqc) Test 
#IOP(5/87=12) Density=Current Pop=(MK,readradii) iop(6/33=2) iop(6/42=6)

holoCaM-CaMKII.loop2.water2.frame379 

   -2  1 
C         66.23153       68.46095       76.35360
C         66.77580       69.16471       77.56701
O         67.87036       68.84260       78.00236
H         65.23915       68.86644       76.05877
H         66.92609       68.60382       75.49875
H         66.11956       67.37678       76.55819
N         66.05861       70.15734       78.15753
C         66.53478       70.95399       79.28396
C         66.78094       70.10667       80.53036
O         65.89543       69.35499       80.91469
C         65.47756       72.02615       79.62249
C         65.95488       73.02261       80.63542
O         67.13256       73.07975       80.94927
O         65.08056       73.89642       81.16596
H         65.13664       70.38707       77.75368
H         67.46655       71.47516       78.97339
H         64.56833       71.51626       80.00756
H         65.19502       72.60193       78.71507
N         67.93716       70.24187       81.25051
C         68.21863       69.49917       82.47884
C         68.36728       70.38068       83.72542
O         68.35152       69.81953       84.81242
C         69.51430       68.70300       82.28876
H         68.64296       70.90692       80.91344
H         67.39096       68.78577       82.68280
H         69.74275       68.09522       83.19000
H         69.42958       68.02596       81.41333
H         70.36385       69.40081       82.11196
N         68.61245       71.72513       83.66218
C         68.91787       72.54931       84.84409
C         68.13440       73.86672       84.91285
O         68.35433       74.61297       85.85718
C         70.44355       72.80552       84.91067
C         71.00080       73.53228       83.72423
O         70.18628       73.96214       82.75077
O         72.20657       73.68574       83.61398
H         68.70713       72.15036       82.73513
H         68.67502       71.98861       85.77284
H         70.94826       71.81568       84.96287
H         70.70313       73.36790       85.83344
N         67.19205       74.21622       83.98970
C         66.38746       75.42994       84.08564
C         67.12480       76.74498       83.85606
O         66.49680       77.77701       84.04620
H         66.96115       73.55812       83.24204
H         65.91362       75.44770       85.09086
H         65.56889       75.38642       83.33635
N         68.42867       76.81349       83.45551
C         69.16638       78.07608       83.32630
C         68.71655       78.99379       82.17469
O         69.33483       80.03703       82.01074
C         70.69258       77.80709       83.25014
C         71.19271       77.19047       81.97115
N         72.51022       76.92423       81.82456
O         70.42465       76.94381       81.05810
H         68.94109       75.93675       83.31599
H         69.03126       78.63450       84.27869
H         70.97895       77.15060       84.10090
H         71.22924       78.77229       83.37470
H         73.17603       77.12395       82.58507
H         72.86633       76.52102       80.94704
N         67.66104       78.70858       81.35486
C         67.18973       79.62849       80.32780
C         67.85573       79.47013       78.97032
O         67.50848       80.24975       78.09442
H         67.08039       77.88735       81.54279
H         67.28740       80.67565       80.69062
H         66.10246       79.45855       80.16860
N         68.74752       78.47288       78.68079
C         69.32536       78.28314       77.34301
C         69.84411       76.85916       77.10189
O         70.00296       76.07522       78.02669
C         70.50651       79.26583       77.05961
C         70.13220       80.74193       76.89082
O         71.51159       79.12281       78.03355
H         68.93250       77.77237       79.40431
H         68.50741       78.41126       76.59862
H         70.95241       78.98985       76.07962
H         71.16033       79.49789       78.88424
H         69.74632       81.18328       77.82949
H         71.03945       81.31658       76.60354
H         69.38329       80.85174       76.07751
N         70.10605       76.47620       75.81634
C         70.66322       75.18776       75.39855
C         72.11648       75.07378       75.81907
O         72.89152       75.98729       75.56227
C         70.56182       75.04341       73.83966
C         69.08817       74.91959       73.35707
C         71.40259       73.87543       73.27656
C         68.38877       73.60329       73.73316
H         69.88195       77.15849       75.07491
H         70.08851       74.35225       75.84805
H         70.98636       75.96856       73.38809
H         69.07369       74.99095       72.24788
H         68.48946       75.76760       73.75079
H         71.28677       73.81746       72.17353
H         72.48287       74.03604       73.47377
H         71.11264       72.90589       73.73069
H         68.90483       72.73061       73.28169
H         68.33461       73.46116       74.82768
H         67.35139       73.61034       73.33937
N         72.57384       73.90332       76.34797
C         73.97747       73.62461       76.63863
C         74.46277       72.49922       75.74810
O         73.67246       71.96831       74.97463
C         74.13117       73.18008       78.09878
C         73.56506       74.15968       79.06492
O         72.27276       74.49593       78.94758
O         74.21785       74.53674       80.02463
H         71.89736       73.13734       76.49972
H         74.60621       74.52344       76.45298
H         75.19529       72.98341       78.34820
H         73.55719       72.23613       78.23666
N         75.75400       72.07507       75.78353
C         76.22914       70.98028       74.95266
C         75.61479       69.63974       75.37557
O         75.12170       68.95432       74.49546
C         77.76957       70.91684       74.89366
C         78.22740       69.96500       73.81220
C         77.92601       70.23127       72.46170
C         78.95525       68.80854       74.13451
C         78.33923       69.35399       71.45768
C         79.36632       67.93196       73.12462
C         79.05810       68.20408       71.78838
H         76.42610       72.57362       76.39090
H         75.90906       71.20886       73.91144
H         78.19446       70.62753       75.87057
H         78.17293       71.92319       74.64729
H         77.37360       71.11963       72.18154
H         79.19816       68.58173       75.16488
H         78.10136       69.56773       70.42329
H         79.92348       67.04005       73.37782
H         79.37675       67.52538       71.00831
N         75.56958       69.19850       76.68490
C         74.97444       67.92270       77.10597
C         73.50085       67.72961       76.76806
O         72.96113       66.68049       77.09969
C         75.09263       67.95596       78.63894
C         76.33127       68.78637       78.84930
C         76.12390       69.89536       77.82615
H         75.58906       67.10808       76.66446
H         74.25271       68.55799       79.06304
H         75.08463       66.95892       79.12967
H         76.48471       69.14457       79.88976
H         77.20872       68.17482       78.53971
H         75.37483       70.62915       78.18656
H         77.09518       70.38652       77.65456
N         72.77566       68.70333       76.15641
C         71.35053       68.64499       75.89701
C         71.13989       68.57289       74.39817
O         70.51193       67.63355       73.93172
C         70.69657       69.89687       76.52023
C         70.99478       69.98095       78.03371
C         70.52454       71.25365       78.67369
O         70.81010       71.47394       79.96975
O         69.93107       72.10703       78.03506
H         73.22872       69.58443       75.89749
H         70.89108       67.74053       76.35810
H         69.60063       69.88838       76.34082
H         71.11794       70.80196       76.03073
H         72.09195       69.95090       78.19848
H         70.53891       69.11355       78.55772
N         71.69213       69.50526       73.57199
C         71.59592       69.42369       72.13265
H         72.15875       70.26431       71.67195
H         72.04425       68.47003       71.77915
H         70.53480       69.48184       71.81622
H         72.23116       70.28314       73.96839
Ca        71.03289       74.31268       80.75122
O         67.25358       75.87666       80.04819
H         66.93665       75.72017       80.97220
H         66.53550       76.41140       79.62514
O         67.70802       74.12820       77.87806
H         66.80891       74.48342       77.66670
H         67.91936       73.52826       77.12200

Ca 1.0



