%chk=holoCaM.loop2.water2.frame91.chk
%nprocshared=20
%mem=10GB
%nosave
#b3lyp/svp scf=(tight,noincore,xqc) Test 
#IOP(5/87=12) Density=Current Pop=(MK,readradii) iop(6/33=2) iop(6/42=6)

holoCaM.loop2.water2.frame91 

   -2  1 
C         78.19544       44.24062       26.43278
C         77.66629       45.14305       25.35763
O         78.35501       45.34866       24.36825
H         79.13663       44.65570       26.84558
H         77.46169       44.11893       27.25743
H         78.39671       43.23700       25.99927
N         76.42045       45.68382       25.46054
C         75.81505       46.44658       24.37988
C         76.49449       47.79329       24.17163
O         76.73410       48.48642       25.15058
C         74.30799       46.67926       24.63514
C         73.57698       46.94044       23.34018
O         72.37354       47.12515       23.35789
O         74.25220       46.77604       22.17422
H         75.85247       45.46192       26.29289
H         75.90293       45.80175       23.48035
H         74.15614       47.48892       25.38277
H         73.85181       45.74946       25.04004
N         76.74939       48.26264       22.91499
C         77.36598       49.55301       22.63611
C         76.43463       50.52980       21.91936
O         76.85899       51.66183       21.72722
C         78.60869       49.31988       21.76945
H         76.48744       47.68603       22.11209
H         77.67686       50.03938       23.58576
H         79.31125       48.62882       22.27990
H         78.31259       48.86664       20.79635
H         79.13501       50.27623       21.56530
N         75.18680       50.19000       21.46681
C         74.37987       51.11548       20.66447
C         72.86657       51.00352       20.86930
O         72.15981       51.79741       20.26185
C         74.76787       50.98989       19.17231
C         74.50620       49.64169       18.55746
O         73.96141       48.64550       19.27218
O         74.79633       49.44583       17.38885
H         74.88304       49.21425       21.55303
H         74.62878       52.15877       20.96261
H         75.85339       51.20613       19.07295
H         74.21517       51.75463       18.58476
N         72.28157       50.09455       21.70575
C         70.84291       50.06265       21.93967
C         69.99767       49.68235       20.73375
O         68.78432       49.78803       20.84631
H         72.85973       49.44776       22.25315
H         70.53136       51.07176       22.28847
H         70.60977       49.34202       22.75326
N         70.53243       49.23429       19.55801
C         69.71443       48.95250       18.37599
C         68.68258       47.82989       18.55873
O         67.86811       47.65390       17.66317
C         70.59761       48.65860       17.13735
C         71.42981       47.40242       17.21904
N         72.09470       46.97367       16.12454
O         71.49804       46.75941       18.25322
H         71.55143       49.14030       19.48033
H         69.15069       49.88435       18.14993
H         71.27831       49.51526       16.94095
H         69.92414       48.55413       16.25995
H         72.05126       47.49597       15.23909
H         72.62779       46.09850       16.14934
N         68.65674       47.02882       19.66233
C         67.66688       45.98856       19.89987
C         68.26061       44.59073       19.94983
O         67.54304       43.68465       20.34888
H         69.35586       47.16301       20.39495
H         66.86512       45.98613       19.12963
H         67.18584       46.21167       20.87598
N         69.51294       44.31372       19.47667
C         70.05804       42.95903       19.38273
C         71.52510       42.88247       19.77926
O         72.23884       43.86730       19.67230
C         69.96682       42.47412       17.91167
C         68.51940       42.25919       17.47401
O         70.56248       43.40556       17.03984
H         70.04839       45.07164       19.04455
H         69.48623       42.25810       20.03100
H         70.46714       41.48325       17.80504
H         71.54595       43.33177       17.14647
H         68.50070       41.89096       16.42639
H         68.03617       41.49784       18.12272
H         67.94074       43.20457       17.52317
N         72.07069       41.67050       20.09038
C         73.51060       41.42908       20.14805
C         74.08892       41.56504       18.75119
O         73.53246       41.04489       17.79448
C         73.83361       40.03301       20.77699
C         73.63989       40.05380       22.32167
C         75.24718       39.51141       20.43407
C         74.65087       40.92544       23.09774
H         71.43629       40.86377       20.19524
H         73.99683       42.19314       20.78065
H         73.13305       39.28623       20.34175
H         73.74974       39.01605       22.70358
H         72.61143       40.39622       22.56344
H         76.03929       40.22019       20.74788
H         75.42071       38.52744       20.91992
H         75.34614       39.34802       19.34023
H         75.69469       40.58728       22.93415
H         74.58951       41.99406       22.82809
H         74.44808       40.85334       24.18574
N         75.27571       42.20810       18.60536
C         75.97508       42.42034       17.34986
C         77.24512       41.58008       17.32313
O         77.52276       40.89070       18.28933
C         76.23947       43.93810       17.24686
C         74.94651       44.65356       16.93429
O         74.24683       45.42721       17.80858
O         74.48373       44.49770       15.81586
H         75.74357       42.55232       19.45356
H         75.37160       42.06901       16.48321
H         76.95523       44.17163       16.42921
H         76.69315       44.29929       18.19251
N         78.02313       41.51629       16.20259
C         79.18978       40.63789       16.10795
C         80.28001       41.00644       17.10726
O         80.64190       40.12714       17.87998
C         79.74702       40.57998       14.66564
C         80.96637       39.68004       14.56070
C         80.89680       38.31795       14.91419
C         82.19354       40.20383       14.11478
C         82.03306       37.50540       14.83192
C         83.32501       39.38554       14.02901
C         83.24574       38.03862       14.38976
H         77.74169       42.06329       15.37527
H         78.84838       39.60318       16.33739
H         79.99751       41.59992       14.31617
H         78.95606       40.19030       13.98894
H         79.96890       37.88217       15.26011
H         82.27786       41.24614       13.83501
H         81.97443       36.46127       15.11254
H         84.26539       39.79670       13.68500
H         84.12392       37.40823       14.32660
N         80.87750       42.23895       17.17871
C         81.97019       42.53037       18.09615
C         81.53639       42.49829       19.54936
O         82.39948       42.46079       20.41425
C         82.44610       43.92053       17.66223
C         81.15964       44.55051       17.16401
C         80.53093       43.39966       16.38322
H         82.79519       41.79505       17.96459
H         83.00492       44.49682       18.43070
H         83.09868       43.80188       16.76805
H         80.52069       44.76186       18.05224
H         81.27354       45.48925       16.58209
H         79.44197       43.58868       16.31383
H         80.99050       43.29757       15.37788
N         80.22256       42.53286       19.89726
C         79.77092       42.44945       21.27761
C         79.91172       41.01321       21.73157
O         80.63136       40.75321       22.68503
C         78.32136       42.95697       21.38332
C         78.26005       44.42896       20.92912
C         76.87779       44.97425       20.87965
O         75.82161       44.24516       21.28441
O         76.70762       46.08876       20.41811
H         79.51433       42.63875       19.15734
H         80.38348       43.12225       21.92059
H         77.95786       42.87581       22.43158
H         77.66480       42.33999       20.73541
H         78.65831       44.52836       19.89973
H         78.87570       45.06545       21.60085
N         79.27984       40.02085       21.04376
C         79.41785       38.61040       21.33015
H         80.10095       38.41748       22.18183
H         78.42011       38.18076       21.55672
H         79.82645       38.10190       20.42992
H         78.68491       40.27002       20.24714
Ca        74.02815       46.04954       20.01152
O         72.89114       43.98983       22.64478
H         73.82152       44.23120       22.87658
H         72.49486       43.69981       23.50296
O         71.28817       45.93309       21.24415
H         70.59093       45.88249       21.94603
H         71.44696       46.90097       21.10326

Ca 1.0



