%chk=holoCaM-CaMKII.loop4.water1.frame437.chk
%nprocshared=20
%mem=10GB
%nosave
#b3lyp/svp scf=(tight,noincore,xqc) Test 
#IOP(5/87=12) Density=Current Pop=(MK,readradii) iop(6/33=2) iop(6/42=6)

holoCaM-CaMKII.loop4.water1.frame437 

   -3  1 
C         53.20651       86.39804       33.32113
C         52.12816       86.27303       34.35403
O         51.03565       85.82457       34.03663
H         54.07964       85.78195       33.62563
H         52.85041       86.04769       32.32971
H         53.52213       87.45907       33.24026
N         52.38676       86.63840       35.63779
C         51.41884       86.49716       36.71452
C         50.19135       87.38348       36.49432
O         50.29355       88.60130       36.50788
C         52.10456       86.79264       38.05772
C         51.14549       86.74914       39.19720
O         51.01433       87.83215       39.98200
O         50.46982       85.75520       39.40127
H         53.33316       86.98676       35.85892
H         51.10353       85.42810       36.74715
H         52.57367       87.79971       38.03279
H         52.90337       86.03658       38.22646
N         48.98833       86.78994       36.27396
C         47.71772       87.47755       36.05379
C         47.15392       88.01630       37.37400
O         46.63194       89.12185       37.39121
C         46.69796       86.48398       35.38156
C         47.23807       85.86004       34.05524
C         45.31801       87.12217       35.13229
C         47.50196       86.85375       32.92042
H         48.99249       85.76657       36.21925
H         47.85285       88.31203       35.33391
H         46.52067       85.64061       36.07919
H         46.50619       85.10770       33.68705
H         48.18176       85.30996       34.24196
H         45.39473       88.00915       34.47127
H         44.63734       86.38063       34.65796
H         44.84755       87.43415       36.08670
H         46.56913       87.36918       32.61501
H         48.26542       87.60247       33.21188
H         47.88694       86.30195       32.03642
N         47.11764       87.22168       38.48243
C         46.34632       87.52710       39.69280
C         46.98777       88.56909       40.60042
O         46.35693       89.56073       40.93756
C         46.16287       86.23341       40.52476
C         45.51074       85.14516       39.72008
O         44.40080       85.31110       39.24177
O         46.15716       83.98282       39.51419
H         47.55793       86.29196       38.40905
H         45.32817       87.86229       39.39396
H         45.53280       86.44578       41.41550
H         47.14712       85.85881       40.88383
N         48.22213       88.32400       41.10666
C         48.89787       89.09184       42.14621
C         49.24353       88.16720       43.30407
O         48.89786       88.45536       44.44086
H         48.69786       87.49700       40.73409
H         48.28564       89.95005       42.50365
H         49.84368       89.49564       41.72979
N         49.89876       86.99857       43.04795
C         50.24787       85.97197       44.02407
C         51.72325       85.56950       43.91938
O         52.15516       84.73306       44.69995
C         49.32441       84.74538       43.77468
C         49.46939       84.13408       42.39513
O         48.55415       83.27996       41.90795
O         50.39360       84.44741       41.67058
H         50.10722       86.78456       42.07115
H         50.05344       86.34464       45.05379
H         48.27914       85.11044       43.87544
H         49.48124       83.95574       44.54052
N         52.54351       86.08395       42.95273
C         53.92066       85.68085       42.75115
C         54.04888       84.21913       42.39048
O         54.82434       83.52651       43.03068
H         52.19981       86.79470       42.29541
H         54.52626       85.92385       43.64914
H         54.33124       86.26309       41.89518
N         53.36115       83.70635       41.32930
C         53.56125       82.35345       40.79627
C         52.83048       82.16511       39.47800
O         51.95984       82.95224       39.13051
C         53.27839       81.20895       41.82368
C         51.86730       81.13050       42.44408
C         50.82895       80.44907       41.57861
N         50.16499       79.35501       42.02536
O         50.56741       80.88493       40.47428
H         52.73889       84.35687       40.82912
H         54.64083       82.29337       40.53451
H         53.97389       81.36182       42.66968
H         53.54925       80.21724       41.39883
H         51.53801       82.14437       42.74845
H         51.95450       80.52661       43.37424
H         50.34849       78.96048       42.95926
H         49.44739       78.90462       41.43706
N         53.21397       81.16196       38.64511
C         52.64668       80.95547       37.32130
C         52.15640       79.51815       37.25450
O         52.97142       78.61928       37.41323
C         53.73644       81.29068       36.25328
C         53.23142       81.11528       34.81420
C         54.22962       82.74461       36.41697
H         53.99310       80.55052       38.93586
H         51.79410       81.64390       37.13917
H         54.60586       80.61223       36.39837
H         52.88966       80.07610       34.63661
H         52.40579       81.82288       34.60117
H         54.05131       81.33264       34.09467
H         53.39109       83.46350       36.28261
H         54.67403       82.90675       37.42088
H         55.01654       82.97857       35.66820
N         50.84245       79.22378       37.01185
C         50.35197       77.85120       36.86416
C         50.17298       77.55938       35.39211
O         50.41381       78.45061       34.60114
C         49.08392       77.55444       37.70760
C         47.80164       78.21012       37.23996
N         47.58116       79.53160       37.40105
O         46.92340       77.51616       36.74948
H         50.19867       79.99825       36.81315
H         51.13098       77.14314       37.21997
H         49.25985       77.79347       38.77864
H         48.92193       76.45653       37.64992
H         48.27225       80.12229       37.87336
H         46.69226       79.95520       37.09375
N         49.82568       76.32825       34.92511
C         49.83915       76.03595       33.49193
C         48.88791       76.92029       32.69442
O         49.17315       77.19237       31.53601
C         49.56078       74.54663       33.22564
C         49.74906       74.20033       31.76818
C         51.00523       74.36598       31.15708
C         48.67384       73.71835       31.00565
C         51.17917       74.06299       29.80552
C         48.85116       73.41326       29.65285
C         50.10526       73.58665       29.04820
O         50.28987       73.29965       27.74430
H         49.62825       75.57231       35.59773
H         50.87211       76.26358       33.14715
H         48.52671       74.31295       33.56351
H         50.26355       73.92565       33.82232
H         51.85145       74.73307       31.72408
H         47.69789       73.58382       31.45509
H         52.15068       74.20041       29.34747
H         48.01286       73.04491       29.07584
H         49.57362       72.96782       27.18478
N         47.75794       77.42863       33.25565
C         46.86880       78.35497       32.56172
C         47.63778       79.61608       32.19710
O         47.63635       80.02355       31.04442
C         45.66639       78.68639       33.48036
C         44.60812       79.56731       32.80190
C         43.44018       79.78785       33.72283
O         43.61678       80.41023       34.90447
O         42.32558       79.40409       33.40496
H         47.53344       77.16297       34.22552
H         46.46890       77.86970       31.64318
H         46.02230       79.18111       34.41171
H         45.17773       77.72815       33.76545
H         44.25610       79.06448       31.87425
H         45.03902       80.55399       32.52953
N         48.32939       80.27038       33.16658
C         49.06307       81.51872       32.97763
C         50.19083       81.34607       31.96008
O         50.20531       82.07615       30.97911
C         49.53392       82.06372       34.36025
C         48.29570       82.31351       35.26149
C         48.53388       82.88228       36.63286
O         47.88348       83.84379       36.99556
O         49.30762       82.26322       37.53695
H         48.31429       79.84492       34.10314
H         48.36569       82.28699       32.57427
H         50.08117       83.02006       34.21320
H         50.21029       81.33260       34.84805
H         47.76085       81.36661       35.43819
H         47.59372       82.98385       34.72292
N         51.13431       80.37257       32.09635
C         52.18780       80.11124       31.13412
H         53.17414       80.16609       31.64074
H         52.06266       79.08509       30.72359
H         52.18136       80.82824       30.28776
H         51.09680       79.75372       32.90370
Ca        48.88491       82.80772       39.70432
O         46.72524       80.83387       40.48609
H         47.10221       79.97422       40.17175
H         46.16278       81.14861       39.73434

Ca 1.0



