%chk=holoCaM.loop4.water3.frame309.chk
%nprocshared=20
%mem=10GB
%nosave
#b3lyp/svp scf=(tight,noincore,xqc) Test 
#IOP(5/87=12) Density=Current Pop=(MK,readradii) iop(6/33=2) iop(6/42=6)

holoCaM.loop4.water3.frame309 

   -3  1 
C          9.20808       49.79046       83.20284
C          7.82400       50.36997       83.22369
O          6.87731       49.59831       83.22089
H          9.98414       50.58300       83.21662
H          9.34614       49.14775       84.09907
H          9.34241       49.16927       82.29254
N          7.62594       51.72222       83.24552
C          6.30028       52.33659       83.32337
C          6.40174       53.84977       83.16114
O          7.08304       54.49257       83.94748
C          5.61662       51.95601       84.66132
C          4.27369       52.59781       84.92613
O          4.12048       53.24031       85.95245
O          3.22361       52.46312       84.08777
H          8.45518       52.33473       83.20330
H          5.70410       51.93859       82.48942
H          6.30358       52.22509       85.49410
H          5.45879       50.86055       84.69948
N          5.73223       54.47528       82.14530
C          5.77798       55.90873       81.87505
C          4.41180       56.58064       82.03759
O          4.38555       57.80342       82.00749
C          6.33471       56.18695       80.43455
C          5.41565       55.59578       79.32124
C          7.77614       55.66445       80.30432
C          5.81451       55.99204       77.89712
H          5.15814       53.90463       81.52597
H          6.45177       56.39692       82.61289
H          6.36818       57.29128       80.29950
H          4.37806       55.96246       79.46837
H          5.40194       54.48941       79.37375
H          7.80740       54.55799       80.39816
H          8.21870       55.94961       79.32811
H          8.41636       56.11202       81.09280
H          5.80799       57.09689       77.78737
H          6.81296       55.59606       77.62422
H          5.08117       55.56404       77.17962
N          3.23944       55.87655       82.13705
C          1.92368       56.52610       82.17401
C          1.01126       56.04401       83.30444
O         -0.07499       56.59075       83.43739
C          1.23320       56.36440       80.80137
C          0.92215       54.94738       80.38929
O          1.21008       53.90091       81.18489
O          0.39326       54.74492       79.30862
H          3.27023       54.85201       82.08077
H          2.05278       57.61953       82.32643
H          1.89640       56.81011       80.02819
H          0.28266       56.94051       80.80435
N          1.36231       55.03351       84.14733
C          0.52038       54.55317       85.23341
C         -0.81891       54.02721       84.75798
O         -1.83600       54.54228       85.20015
H          2.27780       54.59244       84.03851
H          0.36253       55.37928       85.96044
H          1.04735       53.73062       85.76506
N         -0.89632       52.99491       83.86920
C         -2.16484       52.42810       83.39996
C         -2.30510       50.93819       83.71595
O         -3.30112       50.35163       83.31344
C         -2.36891       52.71675       81.89365
C         -1.35706       52.13681       80.94118
O         -0.28500       51.44946       81.37276
O         -1.50761       52.31099       79.74306
H         -0.01370       52.60322       83.50968
H         -3.02131       52.92461       83.90661
H         -2.38047       53.81841       81.74686
H         -3.37009       52.33024       81.60053
N         -1.38226       50.26159       84.45950
C         -1.50102       48.84774       84.79282
C         -1.27451       47.89905       83.62566
O         -1.30326       46.69955       83.86186
H         -0.58707       50.77120       84.86623
H         -2.48947       48.65547       85.26381
H         -0.71831       48.60339       85.54428
N         -1.00875       48.33865       82.36129
C         -0.68244       47.45930       81.24318
C          0.70329       47.77417       80.71335
O          1.32767       48.72963       81.15640
C         -1.71692       47.62478       80.11064
C         -3.08637       47.05746       80.49968
C         -4.05837       47.16578       79.35300
N         -4.45229       48.37447       78.88928
O         -4.49890       46.14832       78.83871
H         -1.00128       49.34332       82.17186
H         -0.66173       46.39576       81.56700
H         -1.38084       47.06225       79.21297
H         -1.79175       48.69951       79.83021
H         -3.49917       47.58314       81.38621
H         -2.95198       45.98299       80.75771
H         -4.10347       49.24373       79.31810
H         -5.11747       48.44091       78.10448
N          1.25300       46.96829       79.75998
C          2.57079       47.18296       79.17570
C          2.44064       47.36365       77.66133
O          1.47160       46.90152       77.07420
C          3.54853       46.06731       79.64114
C          3.11306       44.65863       79.21407
C          4.98857       46.33698       79.18883
H          0.71063       46.15188       79.44133
H          2.98658       48.13126       79.57650
H          3.55575       46.08821       80.75527
H          2.11346       44.41002       79.62514
H          3.08761       44.57002       78.10866
H          3.82281       43.90643       79.62065
H          5.32377       47.32878       79.55793
H          5.67100       45.57164       79.61684
H          5.07222       46.30464       78.08328
N          3.31769       48.17165       77.00335
C          3.17397       48.62642       75.62229
C          4.43786       48.29843       74.82721
O          5.35021       47.69746       75.37342
C          2.90297       50.15558       75.70131
C          2.62512       50.85451       74.39426
N          1.57413       50.49533       73.62065
O          3.35727       51.76389       74.03244
H          4.09769       48.56606       77.53851
H          2.30539       48.13604       75.13247
H          3.76988       50.64515       76.19385
H          2.01208       50.31820       76.34434
H          0.94140       49.73527       73.90754
H          1.39550       50.97851       72.72738
N          4.56550       48.67531       73.52391
C          5.77942       48.48346       72.73326
C          6.94388       49.22458       73.37000
O          7.98200       48.62959       73.62182
C          5.60001       49.06295       71.30485
C          4.37692       48.54795       70.59171
C          4.25495       47.19626       70.23866
C          3.33665       49.44033       70.27486
C          3.10729       46.74599       69.57595
C          2.19151       48.98829       69.62149
C          2.07257       47.63828       69.26746
O          0.97116       47.19036       68.63277
H          3.76942       49.13494       73.07052
H          6.00165       47.39582       72.65600
H          6.50421       48.85373       70.69233
H          5.51197       50.16798       71.37633
H          5.04735       46.49588       70.47062
H          3.40618       50.48835       70.54188
H          3.02162       45.70249       69.30232
H          1.39916       49.68992       69.39236
H          0.23635       47.77857       68.40588
N          6.82344       50.56039       73.62427
C          7.90107       51.41692       74.11221
C          8.32146       51.11393       75.54626
O          9.21616       51.79342       76.03193
C          7.46455       52.90871       74.03123
C          7.07183       53.39497       72.61644
C          8.19541       53.40182       71.61163
O          7.96774       53.76148       70.46791
O          9.44974       53.04532       71.94900
H          5.91750       50.99783       73.40792
H          8.78546       51.27108       73.46079
H          8.27841       53.56835       74.40497
H          6.58428       53.04957       74.69827
H          6.69583       54.43713       72.70182
H          6.24056       52.78233       72.21332
N          7.73521       50.13385       76.29158
C          8.05885       49.88802       77.68802
C          8.70257       48.52377       77.83398
O          9.82953       48.45027       78.30311
C          6.77446       49.96851       78.52511
C          6.01965       51.29085       78.33129
C          4.77915       51.27111       79.16570
O          4.67410       52.13498       80.16906
O          3.91165       50.43439       79.00134
H          6.99968       49.54909       75.88243
H          8.76919       50.65389       78.07328
H          7.02676       49.83026       79.60076
H          6.10074       49.14786       78.22306
H          5.73906       51.45048       77.26956
H          6.67460       52.13118       78.65201
N          8.04182       47.39738       77.44194
C          8.59250       46.06231       77.53318
H          9.61484       46.05366       77.96365
H          7.93290       45.43735       78.17068
H          8.63248       45.61663       76.51694
H          7.09639       47.47870       77.05111
Ca         3.36532       51.80578       81.95253
O          4.12861       49.06814       82.61115
H          4.49784       49.04882       81.69278
H          4.11430       48.12154       82.89850
O          1.19728       51.37896       78.78671
H          0.46404       51.19849       78.14663
H          1.55146       52.26347       78.51769
O          1.67695       49.98024       83.90077
H          1.81137       50.32606       84.81853
H          1.61549       48.99910       84.01376

Ca 1.0



