%chk=holoCaM.loop3.water2.frame311.chk
%nprocshared=20
%mem=10GB
%nosave
#b3lyp/svp scf=(tight,noincore,xqc) Test 
#IOP(5/87=12) Density=Current Pop=(MK,readradii) iop(6/33=2) iop(6/42=6)

holoCaM.loop3.water2.frame311 

   0  1 
C         -1.47257       40.13102       69.25229
C         -2.44673       41.27300       69.21651
O         -2.97567       41.63811       70.25619
H         -0.62954       40.38174       69.92864
H         -1.98126       39.21425       69.61589
H         -1.05784       39.92266       68.24222
N         -2.74830       41.86785       68.03171
C         -3.67406       42.97754       67.87128
C         -4.90939       42.43560       67.19107
O         -5.19313       42.75129       66.04453
C         -2.94264       44.10889       67.11793
C         -3.82538       45.27009       66.77894
O         -3.90434       45.65857       65.62706
O         -4.52521       45.89480       67.73246
H         -2.32069       41.49125       67.17112
H         -4.01268       43.38708       68.85051
H         -2.49537       43.72064       66.17850
H         -2.11959       44.47526       67.76449
N         -5.68992       41.56279       67.88761
C         -6.88747       40.93068       67.34957
C         -8.06599       41.90491       67.25282
O         -9.09666       41.50667       66.73174
C         -7.26365       39.69816       68.20716
C         -6.09292       38.69157       68.28686
C         -6.42422       37.48410       69.17085
C         -5.19301       36.59413       69.43443
N         -4.65402       35.98909       68.21541
H         -5.39185       41.32298       68.84530
H         -6.65106       40.54916       66.33042
H         -8.14605       39.18909       67.76010
H         -7.53237       40.03505       69.23255
H         -5.20400       39.18153       68.73184
H         -5.82884       38.35589       67.26165
H         -7.24535       36.89045       68.71433
H         -6.76906       37.85645       70.16023
H         -5.49047       35.78507       70.13692
H         -4.39872       37.19663       69.93098
H         -5.38763       35.41139       67.74558
H         -4.29703       36.72108       67.56137
H         -3.85085       35.37125       68.47433
N         -7.97810       43.19737       67.70057
C         -9.03630       44.19679       67.53220
C         -8.66245       45.22226       66.46520
O         -9.52382       46.00500       66.08385
C         -9.40465       44.85670       68.88601
C         -8.20175       45.31324       69.68653
O         -8.01039       44.85073       70.79966
O         -7.28347       46.14123       69.15121
H         -7.10264       43.51990       68.13030
H         -9.95427       43.71584       67.12826
H         -9.95321       44.10679       69.49740
H        -10.09792       45.70737       68.70644
N         -7.43299       45.23539       65.88314
C         -7.08482       46.02998       64.72453
C         -7.22366       47.51426       64.92357
O         -7.86124       48.14052       64.08973
H         -6.70016       44.60760       66.22583
H         -7.70174       45.70634       63.85757
H         -6.03129       45.82008       64.45497
N         -6.61602       48.15754       65.96366
C         -6.57857       49.61858       66.05561
C         -5.14877       50.14925       66.01676
O         -4.98091       51.35885       65.93364
C         -7.35307       50.13551       67.28611
C         -6.63246       49.95444       68.59896
N         -6.31170       51.02959       69.35889
O         -6.34061       48.83639       68.98361
H         -6.14661       47.59138       66.68323
H         -7.09421       50.04546       65.16989
H         -8.34589       49.63738       67.32920
H         -7.53352       51.22166       67.13920
H         -6.55542       51.98458       69.05736
H         -5.81869       50.91313       70.25551
N         -4.07144       49.31404       66.09926
C         -2.69348       49.75224       66.06602
C         -2.01327       49.54584       67.39696
O         -0.79884       49.68551       67.43434
H         -4.19812       48.30196       66.21737
H         -2.59329       50.82688       65.80044
H         -2.17174       49.16132       65.28243
N         -2.72300       49.32173       68.55086
C         -2.08072       49.25650       69.85787
C         -2.54817       48.01430       70.66576
O         -3.01734       47.02384       69.80283
C         -2.35990       50.54523       70.66728
C         -1.98662       51.80270       69.90278
C         -2.76852       52.23717       68.81394
C         -0.85908       52.55713       70.26819
C         -2.41880       53.38042       68.09410
C         -0.50949       53.70394       69.54437
C         -1.28745       54.11613       68.45195
O         -0.96058       55.21468       67.74175
H         -3.75103       49.28902       68.52606
H         -0.97837       49.19360       69.71501
H         -1.76638       50.48300       71.60531
H         -3.42995       50.61516       70.95678
H         -3.65434       51.69424       68.51585
H         -0.24097       52.25184       71.10270
H         -3.02937       53.69243       67.25546
H          0.36816       54.26922       69.83048
H         -0.18427       55.75263       67.95181
N         -1.42142       47.48240       71.45170
C         -1.77759       46.38739       72.38453
C         -1.49455       46.77156       73.83382
O         -0.51798       47.45749       74.10783
C         -1.07380       45.05188       71.98332
C          0.47314       45.17821       71.96649
C         -1.60509       44.57145       70.62461
C          1.19750       43.89108       71.55000
H         -0.90474       48.26051       71.92085
H         -2.87139       46.18340       72.33184
H         -1.36120       44.27542       72.72856
H          0.82194       45.44568       72.98556
H          0.78171       45.98411       71.26621
H         -2.71251       44.49448       70.65054
H         -1.29281       45.26424       69.81834
H         -1.22561       43.56217       70.37963
H          0.91225       43.04676       72.21207
H          0.97398       43.62395       70.49578
H          2.29486       44.04452       71.61395
N         -2.31273       46.32250       74.82391
C         -2.15923       46.67612       76.22965
C         -1.64237       45.49288       77.02019
O         -1.40193       44.44526       76.44067
C         -3.51792       47.16087       76.77188
O         -4.46196       46.12510       76.69825
H         -3.07829       45.68216       74.57162
H         -1.41749       47.49570       76.35129
H         -3.86963       48.02433       76.16627
H         -3.40424       47.49229       77.82749
H         -5.22915       46.39534       77.26610
N         -1.43268       45.59171       78.36059
C         -0.97585       44.47655       79.18247
C         -1.95655       43.32006       79.10282
O         -1.54502       42.20714       78.81062
C         -0.81673       44.92598       80.63915
H         -1.61926       46.49755       78.81942
H          0.02590       44.13981       78.83119
H         -0.44663       44.08323       81.26114
H         -0.07641       45.75278       80.69804
H         -1.78264       45.28435       81.05471
N         -3.28556       43.53538       79.31630
C         -4.30330       42.49035       79.24903
C         -4.27598       41.75333       77.92234
O         -4.23049       40.53059       77.93577
C         -5.69265       43.09909       79.47154
H         -3.58883       44.50054       79.51915
H         -4.12813       41.75695       80.06773
H         -6.46687       42.30226       79.45376
H         -5.73184       43.59949       80.46279
H         -5.92770       43.84741       78.68432
N         -4.27290       42.42931       76.73812
C         -4.24682       41.76178       75.43593
C         -3.07180       40.80254       75.34525
O         -3.29092       39.62169       75.11279
C         -4.17837       42.78524       74.28057
C         -5.44538       43.65385       74.18931
C         -5.35524       44.62608       73.05012
O         -5.21148       44.22130       71.90774
O         -5.45076       45.94978       73.28213
H         -4.26209       43.45903       76.77505
H         -5.18168       41.16987       75.31109
H         -4.07600       42.23164       73.32056
H         -3.27865       43.42363       74.40306
H         -5.60156       44.22160       75.12880
H         -6.32916       43.00063       74.02633
N         -1.79874       41.23209       75.54729
C         -0.66340       40.33859       75.50755
H          0.26690       40.90144       75.73600
H         -0.78613       39.53761       76.26775
H         -0.57155       39.88645       74.49813
H         -1.62868       42.21939       75.75806
Ca        -5.26111       46.56873       70.15104
O         -5.65044       49.12030       72.30465
H         -4.82722       49.35485       72.80178
H         -6.35329       49.69321       72.70293
O         -8.29384       47.55013       72.21945
H         -9.20248       47.17050       72.11693
H         -8.11653       47.51130       73.19282

Ca 1.0



