%chk=holoCaM.loop2.water2.frame204.chk
%nprocshared=20
%mem=10GB
%nosave
#b3lyp/svp scf=(tight,noincore,xqc) Test 
#IOP(5/87=12) Density=Current Pop=(MK,readradii) iop(6/33=2) iop(6/42=6)

holoCaM.loop2.water2.frame204 

   -2  1 
C         15.20020       50.16161       96.38533
C         15.15442       48.99571       97.33346
O         15.93676       48.07128       97.17449
H         16.20584       50.63174       96.42628
H         14.99964       49.81849       95.34977
H         14.44777       50.93429       96.65322
N         14.26992       48.98550       98.36730
C         14.22048       47.93168       99.37410
C         13.83575       46.58271       98.78938
O         12.80246       46.48347       98.14232
C         13.22333       48.31468      100.48349
C         13.21526       47.27770      101.56606
O         12.07659       46.63981      101.89467
O         14.25533       46.98616      102.12756
H         13.63502       49.79297       98.47038
H         15.22378       47.85918       99.84869
H         12.19949       48.43090      100.06579
H         13.53285       49.28518      100.92887
N         14.60388       45.48392       99.05360
C         14.28753       44.13901       98.58736
C         14.03205       43.14844       99.73005
O         13.70546       42.01011       99.42286
C         15.45207       43.64376       97.72169
H         15.45347       45.60465       99.62258
H         13.36980       44.15595       97.96091
H         16.38658       43.59526       98.32370
H         15.24044       42.63407       97.31088
H         15.61799       44.34048       96.87234
N         14.19031       43.47460      101.05130
C         14.04372       42.50552      102.14423
C         13.17704       43.02183      103.29841
O         12.29193       42.28783      103.71551
C         15.43137       41.95272      102.58779
C         16.47880       42.95028      102.99132
O         16.16834       44.24398      103.07975
O         17.63701       42.59466      103.13750
H         14.51742       44.41750      101.28891
H         13.53753       41.58536      101.77299
H         15.84807       41.42803      101.69908
H         15.30791       41.19839      103.39454
N         13.37737       44.24019      103.88584
C         12.66845       44.70960      105.06947
C         13.61185       44.95055      106.24776
O         13.13303       45.35200      107.29813
H         14.06445       44.88749      103.49579
H         11.90176       43.97600      105.39599
H         12.14655       45.65799      104.81616
N         14.95428       44.70322      106.15931
C         15.91878       44.83170      107.25523
C         16.15466       46.25989      107.77684
O         16.97980       46.40955      108.66814
C         17.27432       44.19579      106.83286
C         17.98819       44.87237      105.68336
N         19.20522       44.42973      105.29715
O         17.48029       45.81323      105.09518
H         15.31306       44.32016      105.28250
H         15.54737       44.21915      108.10545
H         17.10314       43.13363      106.54877
H         17.95504       44.20020      107.71030
H         19.65432       43.63489      105.77422
H         19.70450       44.89165      104.52555
N         15.47477       47.34738      107.31296
C         15.66336       48.70027      107.82296
C         16.92973       49.40567      107.35373
O         17.08335       50.56796      107.69742
H         14.72851       47.21984      106.62469
H         15.60253       48.69473      108.93353
H         14.82230       49.32306      107.44889
N         17.86396       48.80103      106.56376
C         19.05505       49.47433      106.03974
C         19.11092       49.36618      104.51599
O         18.26447       48.72021      103.91885
C         20.32705       48.83909      106.66380
C         20.40459       49.10432      108.16811
O         20.35288       47.45129      106.44318
H         17.74165       47.81590      106.32066
H         19.04521       50.55726      106.29241
H         21.24576       49.30301      106.23757
H         20.65736       47.30979      105.50920
H         19.53565       48.66213      108.69813
H         21.33597       48.65929      108.57936
H         20.42958       50.19890      108.36012
N         20.13949       49.95021      103.83280
C         20.38569       49.77976      102.40298
C         21.61573       48.90249      102.22544
O         22.56767       49.00913      102.98459
C         20.46552       51.16653      101.66198
C         19.04735       51.53590      101.14014
C         21.48728       51.17485      100.50233
C         18.94586       52.87036      100.39607
H         20.83860       50.48931      104.36457
H         19.56964       49.19163      101.93686
H         20.82934       51.93784      102.37684
H         18.33954       51.56041      101.99568
H         18.71070       50.74688      100.43076
H         21.57345       52.18305      100.04972
H         22.50450       50.94589      100.88618
H         21.21435       50.44217       99.71690
H         17.89436       53.02679      100.07253
H         19.25050       53.70940      101.05316
H         19.56263       52.87180       99.47342
N         21.64020       48.01296      101.19030
C         22.73094       47.08929      100.90916
C         23.38045       47.45932       99.59080
O         22.94509       48.40774       98.96045
C         22.16199       45.66050      100.82129
C         21.46003       45.25924      102.08371
O         20.27495       44.96935      102.05547
O         22.13353       45.20944      103.24842
H         20.84254       47.99433      100.54155
H         23.50644       47.14211      101.70347
H         22.97445       44.93069      100.62677
H         21.43965       45.61019       99.97391
N         24.45982       46.76919       99.12109
C         25.10035       47.11886       97.85919
C         24.18527       46.82425       96.66905
O         23.98993       47.74612       95.88589
C         26.49769       46.47219       97.72449
C         27.25296       47.01309       96.52998
C         27.58412       48.38052       96.45452
C         27.64611       46.15784       95.48707
C         28.28858       48.87913       95.35606
C         28.35203       46.66215       94.38953
C         28.67250       48.02091       94.32406
H         24.85934       46.01362       99.69597
H         25.30106       48.21227       97.89271
H         26.43178       45.37430       97.66930
H         27.09432       46.70959       98.63184
H         27.30437       49.06394       97.24611
H         27.40639       45.10267       95.52150
H         28.53900       49.93135       95.30734
H         28.65234       45.99883       93.58930
H         29.22022       48.40910       93.47519
N         23.55119       45.61773       96.45170
C         22.65786       45.35434       95.32043
C         21.46399       46.29307       95.18949
O         20.75012       46.19934       94.20179
C         22.11347       43.94697       95.59670
C         23.25682       43.30649       96.33862
C         23.68642       44.43133       97.27634
H         23.28318       45.39490       94.40054
H         21.27724       44.01291       96.33387
H         21.74596       43.40435       94.69968
H         23.01358       42.34983       96.84795
H         24.07293       43.12690       95.60158
H         23.00825       44.52774       98.15055
H         24.71087       44.20245       97.60374
N         21.17833       47.20577       96.15618
C         20.07008       48.14230       96.10564
C         20.59744       49.47033       95.62502
O         20.07746       49.99891       94.65270
C         19.45542       48.27626       97.50725
C         18.94041       46.92316       98.00093
C         18.41284       46.98511       99.39074
O         18.39057       48.01975      100.03556
O         17.93803       45.86209       99.92508
H         21.76735       47.25001       96.99397
H         19.27428       47.79229       95.40904
H         18.61855       49.00866       97.48889
H         20.22626       48.64591       98.21845
H         19.76172       46.17522       98.00685
H         18.13581       46.55710       97.32839
N         21.67182       50.04160       96.23662
C         22.28579       51.27612       95.80721
H         23.33256       51.06681       95.49928
H         21.75048       51.73741       94.95271
H         22.29701       51.98988       96.65610
H         22.11007       49.56368       97.03169
Ca        17.32233       45.79089      102.04177
O         16.37239       49.36413      101.79095
H         15.77300       50.02863      102.21298
H         16.50996       49.70562      100.87273
O         15.54659       48.01508      104.33872
H         14.79167       47.38417      104.44226
H         15.16359       48.89821      104.56731

Ca 1.0



