%chk=holoCaM-CaMKII.loop1.water2.frame311.chk
%nprocshared=20
%mem=10GB
%nosave
#b3lyp/svp scf=(tight,noincore,xqc) Test 
#IOP(5/87=12) Density=Current Pop=(MK,readradii) iop(6/33=2) iop(6/42=6)

holoCaM-CaMKII.loop1.water2.frame311 

   0  1 
C         54.65498        0.98103       41.84082
C         55.10612       -0.44637       41.89669
O         54.36412       -1.31760       41.47255
H         53.71564        1.09219       42.42051
H         55.41948        1.66319       42.26955
H         54.47554        1.27124       40.78462
N         56.32772       -0.76232       42.40140
C         56.83114       -2.12610       42.46361
C         55.97306       -2.96700       43.41308
O         55.77715       -2.56988       44.55271
C         58.29950       -2.10448       42.92943
C         58.99013       -3.42288       42.78097
O         58.45488       -4.35853       42.21351
O         60.24123       -3.55518       43.24235
H         56.93525        0.00529       42.72871
H         56.82161       -2.54491       41.42988
H         58.34459       -1.77679       43.98923
H         58.88124       -1.38500       42.31175
N         55.44858       -4.15285       42.99797
C         54.56564       -5.01363       43.79071
C         55.21103       -6.33445       44.19685
O         54.56181       -7.08338       44.91457
C         53.29792       -5.32085       42.95088
C         52.35465       -4.11993       42.80447
C         51.57161       -3.90148       44.11183
C         50.55061       -2.76205       44.03995
N         51.19504       -1.45592       43.90797
H         55.69692       -4.46029       42.05515
H         54.30511       -4.52615       44.75077
H         52.70784       -6.16027       43.37926
H         53.62867       -5.66089       41.94703
H         51.61457       -4.35035       42.00672
H         52.92844       -3.22489       42.49179
H         52.25464       -3.71177       44.96377
H         51.00769       -4.83683       44.32652
H         49.96712       -2.77646       44.98746
H         49.84214       -2.93016       43.19865
H         50.46305       -0.71249       43.97046
H         51.88218       -1.31549       44.68440
H         51.67690       -1.37270       42.98533
N         56.45373       -6.70326       43.78069
C         57.07304       -7.98552       44.12880
C         58.49083       -7.86316       44.69118
O         58.89470       -8.77859       45.39569
C         56.98221       -8.98353       42.95421
C         57.49775       -8.47500       41.62286
O         57.95817       -7.20447       41.48946
O         57.42831       -9.21059       40.65362
H         56.93865       -6.06928       43.14775
H         56.48947       -8.45509       44.95334
H         55.90603       -9.23266       42.80925
H         57.49816       -9.92844       43.23809
N         59.30375       -6.79355       44.44703
C         60.58988       -6.59284       45.10540
C         61.79697       -6.64938       44.18742
O         62.88727       -6.38316       44.67274
H         58.99681       -6.05972       43.80549
H         60.75896       -7.34217       45.90578
H         60.55671       -5.59277       45.58979
N         61.71414       -7.01795       42.87717
C         62.89191       -7.13025       42.00255
C         63.51501       -5.77408       41.62288
O         64.46089       -5.75912       40.84742
C         62.52789       -7.96917       40.75317
C         61.47492       -7.35311       39.89483
O         61.03833       -7.96294       38.93277
O         61.01896       -6.12376       40.17319
H         60.79287       -7.29918       42.50943
H         63.66707       -7.72898       42.52600
H         62.14928       -8.95415       41.10227
H         63.42861       -8.14667       40.12732
N         63.04162       -4.60079       42.13082
C         63.53508       -3.27916       41.79008
C         63.25186       -2.94931       40.35292
O         64.12209       -2.39268       39.70179
H         62.27581       -4.61940       42.80359
H         64.61615       -3.17158       42.03326
H         62.97943       -2.53540       42.40184
N         62.02218       -3.21521       39.81786
C         61.63016       -2.90334       38.44794
C         60.06310       -3.01750       38.30923
O         59.65288       -4.36478       38.25566
C         62.36010       -3.77982       37.35680
C         63.89037       -3.67719       37.25259
O         62.02291       -5.13169       37.48369
H         61.30616       -3.60918       40.44535
H         61.88563       -1.83225       38.28037
H         61.98462       -3.43400       36.36993
H         62.49005       -5.47414       38.28693
H         64.21490       -2.62816       37.09937
H         64.38637       -4.11876       38.14143
H         64.23898       -4.28408       36.38949
N         59.63211       -2.38887       37.05121
C         58.18541       -2.10830       36.95501
C         57.71282       -2.63503       35.60306
O         58.33067       -2.32134       34.59341
C         57.88014       -0.57854       37.10639
C         58.37953       -0.02790       38.47163
C         56.36400       -0.32504       36.95337
C         58.28501        1.49978       38.57992
H         60.20808       -1.56231       36.76476
H         57.62502       -2.63724       37.75966
H         58.41498       -0.03665       36.29468
H         59.45227       -0.27576       38.60652
H         57.81168       -0.49671       39.30580
H         56.11314        0.75116       37.00791
H         56.00481       -0.66944       35.96434
H         55.80056       -0.86212       37.74612
H         58.69427        1.83088       39.55744
H         58.88197        1.97587       37.77219
H         57.24024        1.86292       38.52100
N         56.58702       -3.40197       35.50947
C         56.04780       -3.93531       34.26013
C         54.82493       -3.14720       33.84212
O         54.43551       -2.21924       34.53310
C         55.63428       -5.43506       34.41080
C         56.76991       -6.35048       34.84408
O         54.53548       -5.57778       35.27680
H         56.03706       -3.54584       36.36073
H         56.80139       -3.84646       33.44660
H         55.30897       -5.82171       33.42449
H         54.86509       -5.52225       36.20767
H         56.40172       -7.39906       34.89323
H         57.61513       -6.29552       34.12826
H         57.09366       -6.04604       35.85279
N         54.14536       -3.48498       32.72004
C         52.88147       -2.87791       32.31997
C         51.81002       -3.11956       33.38525
O         51.16013       -2.16942       33.79227
C         52.43456       -3.42805       30.94401
C         53.42784       -3.00836       29.84418
O         52.32703       -4.82871       30.99366
H         54.53168       -4.24365       32.13763
H         53.01079       -1.77737       32.19886
H         51.44179       -2.98530       30.70216
H         51.94452       -5.12281       30.12666
H         53.50268       -1.90069       29.79923
H         54.44205       -3.42159       30.02495
H         53.07933       -3.37249       28.85578
N         51.61312       -4.36583       33.91127
C         50.62474       -4.67763       34.95020
C         50.77920       -3.77276       36.15870
O         49.80986       -3.14811       36.56909
C         50.76676       -6.16889       35.36368
C         49.81103       -6.58806       36.49754
C         49.85577       -8.10582       36.73432
C         48.91818       -8.51915       37.87959
N         48.87554       -9.97462       38.02659
H         52.22263       -5.12700       33.57726
H         49.60150       -4.53389       34.53869
H         51.80869       -6.38239       35.69270
H         50.55699       -6.78628       34.46317
H         48.77163       -6.30461       36.22669
H         50.09504       -6.05911       37.43468
H         50.89226       -8.42930       36.97646
H         49.53250       -8.61563       35.80054
H         47.88965       -8.15065       37.67057
H         49.26821       -8.05994       38.83147
H         48.22162      -10.22201       38.80443
H         48.52346      -10.41231       37.14387
H         49.82665      -10.34718       38.25000
N         51.97728       -3.67111       36.78115
C         52.21624       -2.88622       37.98892
C         51.88047       -1.42349       37.73277
O         51.02748       -0.88613       38.42481
C         53.67262       -3.12041       38.46098
C         53.85758       -4.61318       38.84653
C         55.26906       -5.02718       39.14028
O         56.15792       -4.82240       38.33474
O         55.52848       -5.79262       40.21138
H         52.75856       -4.18710       36.35694
H         51.55096       -3.24903       38.80507
H         53.91274       -2.48360       39.33310
H         54.35540       -2.83973       37.63476
H         53.53197       -5.27092       38.02332
H         53.20799       -4.85403       39.71373
N         52.46158       -0.74271       36.70876
C         52.10598        0.60893       36.32375
H         51.31689        1.04314       36.97213
H         53.00473        1.25762       36.36485
H         51.72415        0.59853       35.27908
H         53.16560       -1.21784       36.14320
Ca        58.53224       -5.79046       39.75167
O         56.88135       -7.89913       38.24273
H         56.38670       -8.60149       37.75297
H         57.76815       -8.30264       38.41982
O         59.17060       -6.50809       36.82936
H         60.10895       -6.53400       37.12142
H         58.96318       -7.44478       36.59954

Ca 1.0



