%chk=holoCaM-CaMKII.loop1.water2.frame336.chk
%nprocshared=20
%mem=10GB
%nosave
#b3lyp/svp scf=(tight,noincore,xqc) Test 
#IOP(5/87=12) Density=Current Pop=(MK,readradii) iop(6/33=2) iop(6/42=6)

holoCaM-CaMKII.loop1.water2.frame336 

   0  1 
C         28.22494       72.61582       57.43769
C         27.97722       74.06103       57.14280
O         27.10131       74.65625       57.75380
H         29.26902       72.49014       57.79556
H         27.53138       72.25334       58.22576
H         28.07651       72.01657       56.51619
N         28.74631       74.70657       56.22557
C         28.59862       76.12668       55.95479
C         27.25330       76.40716       55.29191
O         26.94875       75.76998       54.29282
C         29.75519       76.63538       55.06760
C         29.86132       78.13283       55.13678
O         29.05208       78.82369       55.96442
O         30.71548       78.71695       54.49137
H         29.49619       74.17787       55.75218
H         28.68905       76.64801       56.93459
H         29.62319       76.28596       54.01928
H         30.72309       76.24351       55.44827
N         26.40715       77.35696       55.78659
C         25.07111       77.61055       55.26116
C         24.93813       78.97204       54.59468
O         23.83882       79.29066       54.16090
C         24.02835       77.51315       56.39453
C         24.21415       76.26062       57.26189
C         22.98843       75.94738       58.13364
C         21.74419       75.51660       57.32441
N         22.01397       74.35548       56.46994
H         26.70823       77.91720       56.58395
H         24.81452       76.84352       54.49805
H         23.03694       77.51891       55.89976
H         24.07816       78.39863       57.06946
H         25.09306       76.43202       57.92220
H         24.45103       75.37792       56.63763
H         22.73559       76.82776       58.76541
H         23.25920       75.11048       58.81241
H         21.35899       76.34985       56.70023
H         20.93981       75.25641       58.04596
H         21.11958       74.02734       56.04162
H         22.65656       74.61310       55.68691
H         22.42907       73.57738       57.03228
N         25.99481       79.82411       54.45947
C         25.87523       81.14887       53.85865
C         26.66873       81.17797       52.57065
O         26.10570       81.45445       51.52119
C         26.37936       82.24655       54.82200
C         25.75680       82.16200       56.19021
O         25.96339       81.19214       56.90347
O         25.00440       83.17591       56.65492
H         26.92312       79.53081       54.78798
H         24.81221       81.38297       53.62944
H         26.15988       83.23815       54.37092
H         27.47398       82.19092       54.94355
N         27.99555       80.87647       52.59172
C         28.85659       80.84481       51.42489
C         29.99596       81.82131       51.59409
O         30.20226       82.65478       50.72421
H         28.42138       80.62678       53.49402
H         28.29925       81.06739       50.48835
H         29.27458       79.81903       51.33282
N         30.77586       81.77267       52.71078
C         31.92399       82.63559       52.96088
C         33.19055       81.79743       53.20174
O         34.21813       82.37860       53.52125
C         31.60626       83.60842       54.13014
C         31.23109       82.89533       55.38564
O         31.99057       82.08264       55.86814
O         30.02355       83.05404       55.94390
H         30.54677       81.08461       53.44145
H         32.12918       83.28749       52.08468
H         30.75286       84.25711       53.83368
H         32.48259       84.26088       54.32621
N         33.21384       80.43996       53.00568
C         34.41927       79.62705       53.11485
C         34.84500       79.26948       54.53036
O         35.84608       78.58031       54.65675
H         32.37634       79.96054       52.64714
H         35.24915       80.12547       52.56767
H         34.23044       78.65619       52.60679
N         34.15084       79.67047       55.63354
C         34.51566       79.30293       57.00421
C         33.34514       78.67708       57.75120
O         32.22497       78.66608       57.26320
C         35.04885       80.53398       57.78378
C         36.48505       80.89208       57.38514
O         34.19518       81.64010       57.64178
H         33.32532       80.25557       55.50112
H         35.31209       78.52712       56.99724
H         35.11024       80.29391       58.86683
H         34.38437       82.06169       56.76139
H         36.82642       81.76537       57.98125
H         37.15582       80.03535       57.61176
H         36.55672       81.13488       56.30537
N         33.58605       78.08706       58.95999
C         32.58197       77.42448       59.78546
C         32.65090       78.02739       61.18781
O         33.74022       78.10591       61.73785
C         32.85633       75.88834       59.83200
C         32.97723       75.30863       58.39465
C         31.72959       75.17706       60.61349
C         33.30842       73.81450       58.35099
H         34.55964       78.06218       59.29910
H         31.56675       77.55328       59.35179
H         33.82343       75.71218       60.35373
H         33.80761       75.82564       57.86808
H         32.03934       75.48865       57.82486
H         31.93218       74.09344       60.72329
H         31.64149       75.58076       61.64052
H         30.75423       75.30728       60.09519
H         34.24316       73.60869       58.91475
H         32.48242       73.20190       58.76451
H         33.45609       73.50156       57.29574
N         31.52340       78.41116       61.85213
C         31.53287       78.94266       63.21518
C         31.03774       77.88442       64.17419
O         30.65287       76.81420       63.74308
C         30.64174       80.21340       63.33487
C         31.12148       81.36374       62.45149
O         29.29114       79.91544       63.07591
H         30.61682       78.22701       61.41640
H         32.56902       79.19835       63.52474
H         30.69024       80.59438       64.37659
H         29.15640       79.89795       62.09454
H         32.15802       81.65295       62.71965
H         31.08663       81.05069       61.39278
H         30.45442       82.24291       62.58958
N         31.02974       78.12360       65.51129
C         30.46796       77.19498       66.48894
C         28.97357       77.01632       66.25022
O         28.49705       75.89084       66.29660
C         30.74710       77.68724       67.92901
C         32.25794       77.63858       68.22562
O         30.24888       78.99037       68.10061
H         31.41778       79.01910       65.84143
H         30.95730       76.19834       66.39642
H         30.23648       76.99702       68.63882
H         30.43575       79.25443       69.03897
H         32.45505       77.95275       69.27153
H         32.63618       76.60032       68.10352
H         32.82957       78.30408       67.54586
N         28.18885       78.08464       65.92756
C         26.75582       77.99969       65.64063
C         26.48141       76.98537       64.53930
O         25.68780       76.07679       64.73773
C         26.24089       79.40313       65.23096
C         24.71209       79.48740       65.09480
C         24.28415       80.92773       64.75485
C         22.76450       81.15349       64.83659
N         22.01735       80.37686       63.84790
H         28.64539       79.00748       65.85525
H         26.22516       77.68920       66.56797
H         26.72267       79.72421       64.28061
H         26.54197       80.12138       66.02534
H         24.26344       79.19687       66.06912
H         24.35573       78.78850       64.30850
H         24.66149       81.20988       63.74683
H         24.74292       81.61599       65.49807
H         22.56472       82.23510       64.66552
H         22.40822       80.90164       65.86014
H         21.00022       80.59957       63.94865
H         22.32390       80.63488       62.88215
H         22.14478       79.35269       64.00644
N         27.14020       77.08222       63.35504
C         26.96967       76.16867       62.22641
C         27.29628       74.73833       62.63518
O         26.49607       73.85192       62.37013
C         27.82782       76.65793       61.02903
C         27.29999       78.03089       60.54121
C         28.09275       78.65578       59.42995
O         29.39096       78.95823       59.58096
O         27.52973       78.99447       58.40902
H         27.82408       77.84564       63.26834
H         25.91109       76.18519       61.88240
H         27.76113       75.93280       60.18894
H         28.89078       76.72512       61.34208
H         27.29465       78.76427       61.36678
H         26.24653       77.90448       60.20624
N         28.41852       74.44737       63.34454
C         28.73232       73.11386       63.80977
H         29.66042       73.13687       64.42211
H         27.90728       72.72809       64.44664
H         28.88986       72.43555       62.94637
H         29.05072       75.20407       63.60694
Ca        29.17625       81.02252       56.23526
O         28.56166       82.35331       59.27209
H         27.57939       82.24301       59.22353
H         28.69376       83.27214       59.61719
O         31.45619       81.93449       59.13143
H         31.89252       82.29699       58.32620
H         31.40335       82.71362       59.73943

Ca 1.0



