%chk=holoCaM-CaMKII.loop3.water2.frame223.chk
%nprocshared=20
%mem=10GB
%nosave
#b3lyp/svp scf=(tight,noincore,xqc) Test 
#IOP(5/87=12) Density=Current Pop=(MK,readradii) iop(6/33=2) iop(6/42=6)

holoCaM-CaMKII.loop3.water2.frame223 

   0  1 
C         26.86590       42.09535       45.51068
C         27.63899       41.93579       44.23642
O         27.09546       41.41470       43.27963
H         25.84173       41.67758       45.40798
H         27.39076       41.56011       46.32975
H         26.79082       43.17310       45.76699
N         28.91621       42.40160       44.16419
C         29.80148       42.32410       42.99914
C         30.27535       40.88739       42.73471
O         31.43070       40.57642       42.99267
C         30.98762       43.28910       43.25052
C         31.99504       43.31011       42.14326
O         33.27997       43.03216       42.42148
O         31.66820       43.59370       41.00402
H         29.26996       42.88670       45.00451
H         29.28741       42.71940       42.09818
H         31.50768       43.01037       44.19258
H         30.58829       44.31954       43.36643
N         29.43736       39.95691       42.19617
C         29.83706       38.58484       41.90768
C         30.84829       38.55965       40.77537
O         31.92799       38.02021       40.97667
C         28.60852       37.70310       41.58433
C         27.65595       37.62741       42.79682
C         26.45290       36.71392       42.53222
C         25.50278       36.60906       43.74214
N         24.89621       37.89542       44.09661
H         28.48081       40.22835       41.95706
H         30.29704       38.13775       42.81900
H         28.96114       36.67322       41.35281
H         28.06712       38.09767       40.69691
H         27.29122       38.64525       43.03187
H         28.21188       37.23741       43.67809
H         26.82620       35.69205       42.30117
H         25.88515       37.08587       41.65236
H         26.04607       36.19778       44.62213
H         24.69257       35.89357       43.47900
H         24.42738       38.31812       43.26283
H         24.17978       37.73927       44.84197
H         25.61286       38.55336       44.47710
N         30.58206       39.13693       39.56051
C         31.54538       39.11233       38.45423
C         32.87718       39.81152       38.76400
O         33.79925       39.66097       37.97412
C         30.92995       39.56380       37.10299
C         30.46108       41.01241       36.93864
O         31.47356       41.94055       37.19134
O         29.36865       41.32717       37.74846
H         29.65555       39.56186       39.41755
H         31.79906       38.03974       38.29523
H         30.06161       38.90921       36.87332
H         31.68503       39.38339       36.30762
N         33.09135       40.49387       39.92734
C         34.41926       40.85930       40.39628
C         35.07117       42.06234       39.75110
O         36.18717       42.35869       40.15589
H         32.32248       40.61392       40.59579
H         35.08771       39.97583       40.29762
H         34.35874       41.06958       41.48245
N         34.49092       42.81106       38.76745
C         35.20554       43.93631       38.15895
C         35.46044       45.10291       39.12028
O         36.21755       45.98974       38.74983
C         34.52815       44.43073       36.85587
C         33.13862       45.00415       36.99336
N         32.53074       45.55423       35.91776
O         32.55430       44.97828       38.06142
H         33.56580       42.54271       38.41026
H         36.20090       43.54849       37.84638
H         34.47892       43.58962       36.13159
H         35.17753       45.21865       36.41624
H         33.00740       45.58794       35.00496
H         31.58681       45.95988       35.99933
N         34.85812       45.19289       40.34285
C         35.08590       46.28747       41.27957
C         33.87479       47.18724       41.42633
O         33.94823       48.13358       42.19654
H         34.17800       44.47675       40.62039
H         35.92340       46.93685       40.94463
H         35.36703       45.86125       42.26626
N         32.75603       46.99992       40.66956
C         31.62376       47.91236       40.64048
C         30.32773       47.17801       40.91604
O         30.23370       45.98477       40.66949
C         31.56915       48.55740       39.23931
C         32.81246       49.37684       38.97871
C         33.74393       48.98862       37.99909
C         33.05324       50.53949       39.72941
C         34.89911       49.74923       37.78384
C         34.20336       51.30038       39.50822
C         35.13254       50.90636       38.53567
O         36.24916       51.62994       38.31669
H         32.72199       46.21550       40.01690
H         31.73755       48.71023       41.40585
H         30.67937       49.21464       39.13174
H         31.47887       47.74388       38.48376
H         33.58568       48.09372       37.41022
H         32.34679       50.85893       40.48498
H         35.61516       49.43845       37.03311
H         34.37091       52.19467       40.09506
H         36.44569       52.43576       38.81612
N         29.26044       47.87074       41.39824
C         27.95112       47.28434       41.65139
C         26.95941       47.96734       40.73030
O         26.87815       49.18782       40.73546
C         27.55828       47.44684       43.15005
C         28.58374       46.70641       44.05006
C         26.13114       46.90622       43.39552
C         28.35823       46.91782       45.54907
H         29.37608       48.87854       41.58732
H         27.95046       46.19416       41.43485
H         27.57202       48.53029       43.40281
H         29.60527       47.08112       43.82715
H         28.55930       45.61613       43.83095
H         26.07584       45.82141       43.16079
H         25.80994       47.06384       44.44346
H         25.39130       47.44335       42.76865
H         27.38785       46.50018       45.88356
H         29.15648       46.39576       46.11771
H         28.39968       48.00053       45.79296
N         26.13829       47.22172       39.94051
C         25.13511       47.79449       39.05220
C         23.75868       47.62303       39.66121
O         23.65098       47.06375       40.73746
C         25.23378       47.12553       37.66797
O         24.94160       45.75298       37.74743
H         26.17271       46.19723       40.02790
H         25.30059       48.88655       38.92908
H         26.24701       47.29039       37.23346
H         24.51639       47.58815       36.95946
H         25.80539       45.27036       37.82679
N         22.65095       48.10924       39.03911
C         21.30656       47.95207       39.58811
C         20.94341       46.48481       39.70826
O         20.51116       46.06234       40.77177
C         20.28320       48.66235       38.69975
H         22.76942       48.60745       38.14408
H         21.25314       48.43362       40.59112
H         19.26773       48.56095       39.14030
H         20.52850       49.74411       38.63887
H         20.27837       48.23448       37.67531
N         21.13755       45.64406       38.65315
C         20.82538       44.21826       38.67309
C         21.45905       43.52240       39.86154
O         20.74815       42.85997       40.60446
C         21.30511       43.56280       37.37083
H         21.55647       46.04013       37.79672
H         19.72211       44.08699       38.73467
H         22.40557       43.67364       37.25564
H         21.05307       42.48105       37.36612
H         20.81037       44.04173       36.49910
N         22.78907       43.65334       40.11696
C         23.44992       43.01335       41.25148
C         22.80830       43.43785       42.56294
O         22.32724       42.57880       43.28926
C         24.95961       43.33134       41.24558
C         25.65042       42.69028       40.02864
C         27.12550       42.94156       40.02478
O         27.97605       41.90269       40.08003
O         27.56352       44.07649       39.94205
H         23.34271       44.24809       39.48242
H         23.33881       41.90868       41.16305
H         25.41617       42.91304       42.16535
H         25.11838       44.43122       41.25247
H         25.23030       43.07747       39.07820
H         25.48042       41.59197       40.06125
N         22.73829       44.74615       42.92000
C         22.09326       45.18940       44.13561
H         21.02786       44.87351       44.13541
H         22.61089       44.76194       45.01926
H         22.13023       46.29831       44.19886
H         23.13822       45.45434       42.30130
Ca        30.24107       43.24370       38.58329
O         29.15321       46.27449       37.50006
H         28.94462       47.23953       37.57312
H         28.99916       46.06114       36.54582
O         30.08424       43.77715       35.20896
H         29.47333       44.37093       34.70554
H         29.90230       42.87312       34.85009

Ca 1.0



