%chk=holoCaM.loop2.water1.frame292.chk
%nprocshared=20
%mem=10GB
%nosave
#b3lyp/svp scf=(tight,noincore,xqc) Test 
#IOP(5/87=12) Density=Current Pop=(MK,readradii) iop(6/33=2) iop(6/42=6)

holoCaM.loop2.water1.frame292 

   -2  1 
C         43.30589       51.95309       56.88585
C         44.19663       50.93485       56.23486
O         43.97014       49.74503       56.38884
H         42.49404       51.46475       57.46483
H         43.89872       52.60604       57.55816
H         42.83865       52.58156       56.09535
N         45.21061       51.35221       55.43349
C         46.01547       50.45039       54.61907
C         46.96312       49.58614       55.45334
O         47.74343       50.13330       56.22004
C         46.83269       51.28200       53.60774
C         47.36137       50.45825       52.47309
O         48.07121       50.97799       51.62819
O         46.97995       49.17725       52.32208
H         45.33769       52.37057       55.31995
H         45.30711       49.82420       54.03171
H         47.66065       51.80231       54.13671
H         46.18117       52.04918       53.13714
N         46.98251       48.22926       55.30430
C         47.89306       47.32889       56.01237
C         48.79475       46.53611       55.05438
O         49.51601       45.66894       55.52971
C         47.05620       46.36543       56.86414
H         46.32413       47.80538       54.63882
H         48.55536       47.89006       56.70736
H         46.43338       46.94003       57.58278
H         46.38962       45.74878       56.22434
H         47.71405       45.68762       57.45080
N         48.81913       46.76894       53.70524
C         49.54724       45.92309       52.75629
C         49.95687       46.61278       51.43697
O         50.56180       45.93682       50.61567
C         48.72571       44.63846       52.50979
C         47.32587       44.92228       52.03321
O         47.13281       45.50363       50.98031
O         46.27258       44.53157       52.77594
H         48.20089       47.48496       53.33121
H         50.51706       45.61775       53.20975
H         48.65331       44.07912       53.46753
H         49.24712       43.98061       51.78167
N         49.75230       47.94016       51.17927
C         50.28719       48.62863       50.00722
C         49.69477       48.26617       48.65236
O         50.18068       48.81772       47.67445
H         49.31244       48.53537       51.88572
H         51.38481       48.45490       49.97284
H         50.13077       49.72190       50.13647
N         48.67560       47.37403       48.48174
C         48.17411       46.99879       47.15438
C         47.36655       48.09064       46.42440
O         46.86027       47.80158       45.34804
C         47.40253       45.65705       47.20331
C         46.07830       45.63888       47.91577
N         45.33132       44.51173       47.86805
O         45.66438       46.61973       48.51269
H         48.30103       46.88987       49.30543
H         49.05501       46.75640       46.51831
H         48.05394       44.87900       47.65872
H         47.20430       45.34922       46.15338
H         45.66969       43.67808       47.36621
H         44.40404       44.46866       48.30398
N         47.23741       49.36704       46.89711
C         46.53520       50.42708       46.18271
C         45.01576       50.37013       46.26344
O         44.38790       51.25528       45.70517
H         47.73412       49.64577       47.74880
H         46.87090       50.44652       45.12196
H         46.82325       51.40036       46.63571
N         44.35507       49.38810       46.94209
C         42.89534       49.31461       47.06417
C         42.47867       49.26053       48.53191
O         43.33014       49.26209       49.40297
C         42.39209       48.05216       46.31480
C         42.59243       48.19763       44.80558
O         43.06570       46.89982       46.75492
H         44.89880       48.64160       47.38401
H         42.40414       50.20696       46.61950
H         41.29650       47.91760       46.45470
H         42.73724       46.69841       47.66931
H         42.20689       47.29449       44.28694
H         42.02776       49.07985       44.43288
H         43.66607       48.32240       44.55343
N         41.15432       49.15716       48.86430
C         40.69019       48.92458       50.22789
C         40.15060       47.50675       50.27645
O         39.15352       47.21056       49.63530
C         39.63365       49.98939       50.66254
C         40.30800       51.38341       50.75529
C         38.97709       49.60791       52.00482
C         39.36530       52.51306       51.18320
H         40.44894       49.15480       48.11525
H         41.53765       48.98185       50.94499
H         38.82244       50.02103       49.90114
H         40.72445       51.64766       49.75999
H         41.14772       51.34412       51.48412
H         38.47654       48.62294       51.93351
H         39.73015       49.58202       52.81571
H         38.17160       50.31846       52.27663
H         38.99308       52.36073       52.21754
H         39.91872       53.47534       51.18079
H         38.50495       52.58970       50.48651
N         40.80944       46.56433       51.01104
C         40.36259       45.18806       51.14760
C         39.14970       45.13823       52.06760
O         38.75184       46.17700       52.57863
C         41.50837       44.29696       51.69506
C         42.64762       44.10724       50.71058
O         43.55561       45.06743       50.41492
O         42.77983       43.01476       50.18164
H         41.65556       46.84232       51.50967
H         40.07997       44.78660       50.14892
H         41.07700       43.28675       51.85439
H         41.89003       44.66062       52.67451
N         38.47986       43.97334       52.30810
C         37.31547       43.92517       53.18594
C         37.69682       44.18219       54.64641
O         36.98823       44.94163       55.28420
C         36.48792       42.63414       53.00460
C         35.08100       42.79003       53.55259
C         34.21502       43.76047       53.00391
C         34.60698       41.96811       54.58829
C         32.91377       43.91006       53.48716
C         33.29880       42.12036       55.06729
C         32.45490       43.09067       54.51838
H         38.77295       43.11552       51.81507
H         36.64948       44.74751       52.84656
H         37.01262       41.76896       53.45659
H         36.37459       42.42783       51.91814
H         34.54010       44.40252       52.19502
H         35.24513       41.21056       55.02372
H         32.26068       44.65989       53.05754
H         32.93586       41.48475       55.86395
H         31.44399       43.20674       54.88814
N         38.81520       43.64618       55.24749
C         39.26245       43.99747       56.59775
C         39.54853       45.48371       56.82463
O         39.83541       45.85092       57.95679
C         40.58900       43.23310       56.74683
C         40.35708       42.01957       55.88094
C         39.67817       42.64227       54.66538
H         38.48482       43.63512       57.30493
H         41.40492       43.80582       56.24306
H         40.90322       43.03491       57.79367
H         41.26592       41.42555       55.64399
H         39.62356       41.36672       56.40614
H         40.41910       43.14618       54.01702
H         39.13981       41.84259       54.12025
N         39.54951       46.38040       55.79566
C         39.87845       47.79698       55.91788
C         38.71462       48.68957       55.49131
O         38.84248       49.89886       55.61376
C         41.09346       48.09281       55.01595
C         42.30434       47.22147       55.37838
C         43.38458       47.29181       54.34629
O         43.26866       48.08261       53.26434
O         44.30469       46.49378       54.40488
H         39.37287       46.03875       54.84852
H         40.12821       48.04885       56.97159
H         41.37936       49.16688       55.06310
H         40.79315       47.85399       53.97015
H         41.98858       46.15783       55.38530
H         42.69590       47.47711       56.38396
N         37.55935       48.17622       54.97290
C         36.42702       48.97426       54.55569
H         35.53097       48.65749       55.13036
H         36.58901       50.05897       54.71520
H         36.23373       48.79552       53.47649
H         37.45497       47.17014       54.84363
Ca        44.01167       46.99944       51.46902
O         46.03102       49.41925       49.72003
H         47.00620       49.28629       49.81338
H         45.92993       50.36886       49.45840

Ca 1.0



