%chk=holoCaM-CaMKII.loop3.water1.frame421.chk
%nprocshared=20
%mem=10GB
%nosave
#b3lyp/svp scf=(tight,noincore,xqc) Test 
#IOP(5/87=12) Density=Current Pop=(MK,readradii) iop(6/33=2) iop(6/42=6)

holoCaM-CaMKII.loop3.water1.frame421 

   0  1 
C         69.44649       63.60560       43.64214
C         69.16504       63.19572       45.05476
O         69.98577       63.45228       45.92468
H         70.43023       64.11681       43.56938
H         69.45967       62.70737       42.99026
H         68.65442       64.30089       43.29394
N         68.00673       62.54308       45.35227
C         67.65131       62.11562       46.69624
C         67.55508       60.59904       46.71259
O         66.74133       60.03422       45.99488
C         66.34551       62.82242       47.11630
C         65.94115       62.60449       48.54786
O         64.84816       63.22755       49.02380
O         66.59369       61.89341       49.29215
H         67.34415       62.33944       44.58742
H         68.43794       62.43173       47.41314
H         65.51328       62.50845       46.45042
H         66.49573       63.91743       46.99516
N         68.41144       59.87755       47.49013
C         68.47995       58.41451       47.51015
C         67.17015       57.78490       47.95567
O         66.90134       56.65741       47.56690
C         69.68701       58.00830       48.39949
C         70.09872       56.52719       48.48986
C         69.28769       55.68810       49.49237
C         69.89423       54.28244       49.62822
N         69.16549       53.48523       50.61413
H         69.08502       60.40453       48.06720
H         68.68810       58.07647       46.47034
H         69.55803       58.41067       49.42458
H         70.56140       58.52848       47.94654
H         71.14032       56.52839       48.88378
H         70.12120       56.06841       47.47806
H         68.23349       55.58847       49.18837
H         69.31931       56.18597       50.48668
H         70.95777       54.36496       49.94745
H         69.86462       53.76718       48.64249
H         68.16846       53.37177       50.32026
H         69.60849       52.54045       50.68373
H         69.20837       53.94670       51.55194
N         66.29716       58.46329       48.75023
C         65.04873       57.91003       49.25632
C         63.84805       58.66822       48.69308
O         63.01675       58.02691       48.06413
C         65.11273       57.81233       50.80365
C         65.69588       59.01384       51.51576
O         65.09487       60.21155       51.47218
O         66.74208       58.89923       52.13465
H         66.53939       59.41720       49.04375
H         64.91154       56.85885       48.91184
H         65.79432       56.96175       51.03213
H         64.11377       57.54932       51.21302
N         63.69080       60.01416       48.83948
C         62.57596       60.76535       48.27875
C         61.73126       61.46368       49.32889
O         60.79635       62.14817       48.93711
H         64.40523       60.55066       49.33175
H         61.89796       60.10993       47.69096
H         62.98783       61.52808       47.58389
N         61.95609       61.32456       50.67050
C         61.08280       61.92096       51.68162
C         61.11156       63.44882       51.71551
O         60.31662       64.00820       52.45863
C         61.40346       61.35131       53.08849
C         62.74752       61.75561       53.64981
N         63.14984       61.28743       54.85230
O         63.47310       62.51534       53.03252
H         62.71480       60.70910       50.98793
H         60.04467       61.59940       51.44102
H         61.35717       60.24186       53.03558
H         60.62439       61.68956       53.80530
H         62.55193       60.64862       55.39543
H         64.06317       61.56556       55.24088
N         61.99256       64.19051       50.97633
C         62.01575       65.64638       51.00394
C         63.34347       66.24001       51.43819
O         63.41034       67.46027       51.48524
H         62.66288       63.72114       50.35445
H         61.23655       66.04756       51.68672
H         61.78608       66.02007       49.98322
N         64.44538       65.48703       51.74582
C         65.71858       66.09810       52.12454
C         66.87833       65.06246       52.09485
O         66.72594       64.10771       53.10933
C         65.64564       66.84367       53.49308
C         65.35898       65.93544       54.67145
C         66.36472       65.67949       55.62215
C         64.10176       65.32679       54.82995
C         66.12341       64.81638       56.69462
C         63.85965       64.47366       55.91055
C         64.86889       64.20902       56.84134
O         64.62318       63.37062       57.86827
H         64.40278       64.46365       51.65567
H         65.96666       66.84267       51.33528
H         64.89240       67.65746       53.47835
H         66.62806       67.34182       53.64257
H         67.34445       66.13040       55.52259
H         63.30418       65.51114       54.12452
H         66.91371       64.61748       57.40766
H         62.88635       64.01228       56.02058
H         65.29763       63.15306       58.52760
N         68.18048       65.72840       52.27249
C         69.32338       64.83556       51.99184
C         70.44410       65.08548       52.98052
O         70.45001       66.10193       53.66260
C         69.85072       64.92340       50.51901
C         70.43032       66.32446       50.16671
C         68.75754       64.49730       49.53360
C         71.11040       66.38173       48.79710
H         68.24383       66.63187       51.75591
H         69.00561       63.78865       52.19061
H         70.67887       64.18616       50.42576
H         71.20267       66.59529       50.91737
H         69.64180       67.10389       50.18405
H         69.14917       64.43547       48.50036
H         68.40338       63.48743       49.81039
H         67.90257       65.20495       49.54505
H         71.54144       67.39413       48.64515
H         71.93050       65.63521       48.74164
H         70.38837       66.20308       47.97517
N         71.41127       64.13955       53.13412
C         72.53684       64.24868       54.05220
C         73.84143       64.00232       53.30603
O         73.81328       63.80372       52.10066
C         72.33626       63.24317       55.19982
O         72.25770       61.92666       54.72064
H         71.32251       63.26390       52.59582
H         72.58038       65.26134       54.51036
H         71.38764       63.48032       55.72858
H         73.13724       63.34129       55.96799
H         73.16624       61.53627       54.79860
N         75.03262       63.99161       53.96500
C         76.31261       63.72786       53.30987
C         76.33917       62.35483       52.65896
O         76.66987       62.26341       51.48539
C         77.45546       63.82374       54.32520
H         75.02908       64.17561       54.98010
H         76.49738       64.50507       52.53416
H         77.47390       64.83812       54.77691
H         77.33267       63.07280       55.13462
H         78.42928       63.64997       53.81840
N         75.98524       61.24422       53.36700
C         76.00908       59.88723       52.82343
C         75.23568       59.78547       51.52556
O         75.77812       59.27434       50.55515
C         75.42710       58.89967       53.84277
H         75.66666       61.37624       54.33933
H         77.06356       59.58797       52.63015
H         74.36834       59.14776       54.07291
H         75.47056       57.86414       53.44091
H         76.01437       58.93233       54.78469
N         73.97232       60.28236       51.42870
C         73.18158       60.21738       50.20241
C         73.93158       60.87635       49.05644
O         74.19680       60.21225       48.06362
C         71.79933       60.87902       50.39921
C         70.96234       60.15748       51.47268
C         69.61466       60.79306       51.63900
O         68.83837       60.84824       50.70042
O         69.24634       61.28440       52.83710
H         73.57872       60.74574       52.26032
H         73.00985       59.14870       49.93857
H         71.24781       60.83806       49.43370
H         71.92832       61.94614       50.67964
H         71.47563       60.18220       52.45448
H         70.82844       59.09363       51.18969
N         74.34143       62.17009       49.14134
C         75.11240       62.80903       48.09786
H         76.06499       62.25812       47.94147
H         74.53308       62.82892       47.15144
H         75.35575       63.85209       48.39343
H         74.12290       62.71414       49.98329
Ca        66.03632       62.08027       52.32900
O         67.07329       61.04762       55.04276
H         67.07033       61.97923       55.37840
H         66.36432       60.59271       55.56270

Ca 1.0



