%chk=holoCaM-CaMKII.loop1.water2.frame304.chk
%nprocshared=20
%mem=10GB
%nosave
#b3lyp/svp scf=(tight,noincore,xqc) Test 
#IOP(5/87=12) Density=Current Pop=(MK,readradii) iop(6/33=2) iop(6/42=6)

holoCaM-CaMKII.loop1.water2.frame304 

   0  1 
C         52.42571       34.81873       60.09985
C         53.70307       35.59076       60.22393
O         54.76846       34.99604       60.19800
H         51.86599       35.16996       59.20746
H         52.63077       33.73250       59.99200
H         51.80645       34.97972       61.00713
N         53.66623       36.94302       60.35430
C         54.86464       37.76493       60.47184
C         55.60557       37.40712       61.75777
O         55.00587       37.48856       62.82074
C         54.45552       39.25598       60.44658
C         55.60650       40.21172       60.32368
O         56.87046       39.76943       60.21280
O         55.38613       41.41038       60.28278
H         52.74129       37.40226       60.35058
H         55.50272       37.57961       59.57785
H         53.86576       39.49828       61.35728
H         53.81187       39.43130       59.55640
N         56.90973       36.99975       61.72935
C         57.65870       36.58467       62.91731
C         58.74803       37.57797       63.30046
O         59.29700       37.43476       64.38527
C         58.33225       35.21043       62.68869
C         57.40995       34.07786       62.22094
C         56.29124       33.76208       63.21698
C         55.48094       32.54507       62.75225
N         54.39725       32.25321       63.68845
H         57.38746       36.98932       60.82538
H         56.96837       36.52753       63.78594
H         58.84072       34.89229       63.62586
H         59.11438       35.32848       61.90479
H         58.04202       33.17168       62.08874
H         56.97898       34.33192       61.23085
H         55.61584       34.63899       63.30710
H         56.73468       33.54156       64.21243
H         56.15297       31.66018       62.68146
H         55.05170       32.73813       61.74431
H         53.73523       33.06190       63.73032
H         53.87910       31.40714       63.35883
H         54.78537       32.06379       64.64112
N         59.13685       38.58517       62.46837
C         60.15314       39.57638       62.80911
C         59.59363       40.99772       62.76584
O         60.35003       41.92981       62.99900
C         61.40309       39.39083       61.91614
C         61.21097       39.54936       60.42934
O         60.01187       39.83904       59.89431
O         62.17075       39.40336       59.68998
H         58.70714       38.65203       61.53975
H         60.51215       39.42236       63.85062
H         61.80011       38.36752       62.09722
H         62.18178       40.11411       62.24286
N         58.26821       41.24095       62.53493
C         57.66649       42.56305       62.57743
C         58.07633       43.51092       61.46647
O         57.59235       44.63404       61.49527
H         57.61977       40.45481       62.41275
H         57.89645       43.02670       63.56048
H         56.56213       42.45046       62.51199
N         58.94272       43.17433       60.46361
C         59.35042       44.14342       59.44468
C         58.20042       44.62147       58.55687
O         58.38814       45.61183       57.86393
C         60.54043       43.62660       58.60254
C         60.27748       42.37132       57.81512
O         61.16669       41.89922       57.12633
O         59.09076       41.74528       57.87422
H         59.36162       42.23684       60.45200
H         59.72710       45.03673       59.99183
H         61.39122       43.42143       59.28763
H         60.85464       44.42531       57.89611
N         56.99303       43.98536       58.52130
C         55.84131       44.48223       57.78191
C         55.42796       43.58554       56.63631
O         54.37598       43.84273       56.06811
H         56.86232       43.11453       59.05268
H         56.01868       45.49515       57.36003
H         54.99770       44.56740       58.50030
N         56.21881       42.56642       56.18915
C         55.87064       41.72372       55.04853
C         55.97230       40.22665       55.42034
O         55.61887       40.02141       56.75436
C         56.81265       42.03866       53.85940
C         56.59286       43.45450       53.30793
O         58.15932       41.84772       54.21837
H         57.12677       42.40529       56.63750
H         54.82242       41.92317       54.73204
H         56.59100       41.34867       53.01899
H         58.45436       42.62241       54.76621
H         57.27634       43.63068       52.45037
H         55.54613       43.56342       52.95325
H         56.79201       44.22365       54.08368
N         55.10974       39.41147       54.55498
C         55.21580       37.95045       54.76072
C         56.00673       37.31755       53.61658
O         55.68322       37.57284       52.46490
C         53.78629       37.33378       54.84743
C         52.91402       38.10416       55.87787
C         53.87982       35.83923       55.22697
C         51.46623       37.61270       55.95136
H         55.13153       39.69308       53.54874
H         55.70698       37.72685       55.73569
H         53.29897       37.42814       53.85150
H         52.86111       39.17287       55.57871
H         53.37086       38.05026       56.89044
H         52.88442       35.35389       55.22856
H         54.49480       35.28197       54.49626
H         54.33408       35.72260       56.23561
H         51.40562       36.57674       56.34006
H         50.89231       38.26227       56.64530
H         50.99169       37.66194       54.94798
N         57.00599       36.42323       53.86162
C         57.75109       35.75254       52.79576
C         57.21292       34.35043       52.59139
O         56.32322       33.93059       53.30857
C         59.27213       35.71274       53.11626
C         59.88239       37.11052       53.25251
O         59.53261       34.93173       54.25870
H         57.17263       36.13302       54.83152
H         57.60755       36.28682       51.83154
H         59.80901       35.23275       52.27130
H         59.37593       35.48819       55.06350
H         59.73929       37.68643       52.31459
H         59.40454       37.65288       54.09241
H         60.97224       37.02451       53.45413
N         57.72226       33.56318       51.60488
C         57.31066       32.17613       51.40072
C         57.59313       31.36219       52.65097
O         56.74812       30.58228       53.07069
C         58.06361       31.54248       50.20156
C         57.73051       32.23321       48.87488
O         59.45288       31.58590       50.41624
H         58.45716       33.95751       51.00255
H         56.22232       32.12854       51.17112
H         57.71783       30.48286       50.12313
H         59.83748       30.75595       50.03066
H         56.63749       32.19129       48.68382
H         58.05429       33.29426       48.87416
H         58.25338       31.71359       48.04439
N         58.77720       31.52128       53.30065
C         59.19760       30.74534       54.46039
C         58.19943       30.87765       55.59408
O         57.72207       29.87621       56.10628
C         60.59797       31.19630       54.97569
C         61.69862       31.36416       53.90546
C         61.86415       30.15665       52.97766
C         62.89005       30.47084       51.87974
N         63.02245       29.35221       50.94919
H         59.40931       32.24062       52.93102
H         59.27373       29.67706       54.15933
H         60.93144       30.45593       55.73550
H         60.52122       32.18335       55.48334
H         62.66062       31.58415       54.41773
H         61.47613       32.25668       53.28619
H         60.89738       29.93549       52.47860
H         62.17885       29.26860       53.56636
H         63.87835       30.69473       52.33847
H         62.55613       31.37010       51.31264
H         63.71056       29.60842       50.20481
H         63.36445       28.50388       51.45522
H         62.10013       29.14965       50.49858
N         57.85161       32.11751       56.02992
C         56.95806       32.37760       57.15398
C         55.58859       31.77867       56.88971
O         55.14480       30.95740       57.68054
C         56.88946       33.90061       57.42094
C         58.28359       34.43845       57.82170
C         58.32180       35.92437       57.97416
O         58.82436       36.47175       59.09214
O         57.99546       36.64468       57.04863
H         58.25503       32.91698       55.52225
H         57.37489       31.90506       58.07205
H         56.17304       34.11148       58.24127
H         56.52917       34.41532       56.50319
H         59.03456       34.19927       57.04732
H         58.61408       33.95777       58.76774
N         54.88420       32.10950       55.77316
C         53.60607       31.52268       55.42298
H         52.84672       32.32424       55.31505
H         53.70414       30.98948       54.45294
H         53.24944       30.79514       56.18205
H         55.28314       32.79019       55.11848
Ca        57.61664       39.33330       57.59054
O         60.98797       37.71970       57.06498
H         61.90175       38.05695       57.24060
H         61.00672       37.43985       56.11581
O         60.14436       39.97287       55.03535
H         59.91173       39.98441       54.07315
H         61.13364       39.96821       55.04594

Ca 1.0



