%chk=holoCaM-CaMKII.loop1.water2.frame7.chk
%nprocshared=20
%mem=10GB
%nosave
#b3lyp/svp scf=(tight,noincore,xqc) Test 
#IOP(5/87=12) Density=Current Pop=(MK,readradii) iop(6/33=2) iop(6/42=6)

holoCaM-CaMKII.loop1.water2.frame7 

   0  1 
C         67.30636       66.45236       14.14511
C         67.82068       66.02638       12.80792
O         67.99938       64.83392       12.60100
H         66.31579       65.97920       14.31452
H         68.01239       66.12286       14.93418
H         67.18657       67.55432       14.19956
N         68.04593       66.94161       11.82522
C         68.45627       66.53149       10.49578
C         69.86652       65.98172       10.52204
O         70.77665       66.72518       10.86496
C         68.34696       67.70252        9.50017
C         68.41665       67.20293        8.09413
O         69.24448       67.64595        7.32208
O         67.53339       66.26325        7.69654
H         67.85095       67.93832       12.00982
H         67.73178       65.76119       10.16395
H         69.10724       68.48994        9.70469
H         67.35084       68.16427        9.58775
N         70.12570       64.69934       10.13318
C         71.47904       64.16606       10.04652
C         71.92624       64.06814        8.59435
O         73.09818       63.80065        8.36556
C         71.58194       62.76788       10.70092
C         70.97990       62.63345       12.11164
C         71.49704       63.62544       13.15983
C         73.01248       63.55375       13.38205
N         73.41587       64.48535       14.43493
H         69.34585       64.10389        9.82376
H         72.18434       64.85872       10.55496
H         72.65021       62.46001       10.71717
H         71.03932       62.03308       10.06443
H         71.16828       61.59508       12.46546
H         69.87835       62.76234       12.04245
H         70.98258       63.39388       14.11867
H         71.21464       64.65668       12.86273
H         73.54340       63.81908       12.44250
H         73.30359       62.52013       13.67319
H         73.13947       65.46095       14.17701
H         72.96253       64.22057       15.33985
H         74.45377       64.44663       14.55118
N         71.05001       64.23426        7.55675
C         71.44954       64.09849        6.16077
C         72.23250       65.31152        5.66819
O         72.76970       65.24810        4.57141
C         70.20354       63.92966        5.26468
C         69.34300       62.74227        5.62846
O         68.31589       62.53353        5.00354
O         69.68324       61.90735        6.63117
H         70.05235       64.39276        7.75238
H         72.07089       63.18000        6.06165
H         70.51587       63.81407        4.20491
H         69.59240       64.85049        5.34918
N         72.28694       66.47216        6.38482
C         72.96055       67.67670        5.92148
C         72.37382       68.19358        4.62243
O         73.10589       68.41759        3.67036
H         71.80361       66.53505        7.29297
H         74.05018       67.49233        5.81843
H         72.81623       68.46832        6.69047
N         71.03547       68.40030        4.53595
C         70.32082       68.93599        3.37725
C         69.51759       70.19120        3.77007
O         68.81351       70.72080        2.92216
C         69.43758       67.80643        2.76488
C         68.43812       67.24433        3.73245
O         67.81238       66.07503        3.53371
O         68.24829       67.79862        4.79569
H         70.48683       68.14136        5.36040
H         71.03615       69.23176        2.57927
H         70.12626       66.97916        2.48503
H         68.91704       68.13932        1.84095
N         69.60840       70.74652        5.02410
C         68.92955       71.97261        5.43805
C         67.43452       71.83955        5.68798
O         66.81837       72.83990        6.02906
H         70.25354       70.34255        5.71590
H         69.12956       72.76756        4.68823
H         69.36921       72.30452        6.40365
N         66.78315       70.65642        5.54642
C         65.35026       70.45514        5.72484
C         65.08383       69.32339        6.71460
O         65.68097       68.26197        6.59611
C         64.69923       70.15170        4.35340
C         64.62084       71.40400        3.46702
O         65.36732       69.11281        3.68162
H         67.32390       69.84318        5.25385
H         64.84890       71.37125        6.11013
H         63.64520       69.83796        4.52337
H         66.18779       69.48017        3.26020
H         64.02464       72.19219        3.97507
H         65.63296       71.80413        3.24867
H         64.11842       71.15118        2.50931
N         64.11786       69.46533        7.66788
C         63.71905       68.42708        8.61840
C         62.41234       67.82370        8.12785
O         61.48647       68.56821        7.82814
C         63.56765       69.03557       10.04960
C         64.91498       69.62518       10.53560
C         63.05830       67.97311       11.04973
C         64.81641       70.42926       11.83291
H         63.56455       70.33735        7.66964
H         64.48075       67.61563        8.66782
H         62.81805       69.85612        9.99435
H         65.31973       70.31573        9.76542
H         65.63437       68.80063       10.69273
H         62.08125       67.55975       10.72940
H         63.78664       67.13874       11.13757
H         62.89195       68.40654       12.05534
H         64.48858       69.80229       12.68531
H         65.81897       70.83558       12.08574
H         64.11333       71.27865       11.70318
N         62.25922       66.46966        8.05170
C         61.05114       65.81968        7.55187
C         60.18335       65.34149        8.69529
O         60.55825       65.49320        9.84902
C         61.40478       64.61512        6.62667
C         62.28955       65.00139        5.44680
O         61.99074       63.56270        7.35343
H         63.01442       65.87518        8.41881
H         60.44550       66.54867        6.96892
H         60.46943       64.21489        6.18458
H         62.93779       63.79117        7.53300
H         63.27018       65.35468        5.82447
H         62.45984       64.11142        4.80387
H         61.80325       65.79414        4.84187
N         58.99702       64.73335        8.43846
C         58.14433       64.14165        9.46346
C         58.91921       63.04599       10.19240
O         58.94970       63.03200       11.41267
C         56.86518       63.57149        8.79813
C         55.87063       63.02487        9.82479
O         56.23324       64.59667        8.07122
H         58.70057       64.65547        7.45192
H         57.82715       64.92949       10.18434
H         57.16834       62.74766        8.10715
H         55.79291       64.17341        7.28800
H         55.55102       63.83459       10.51560
H         54.97257       62.63472        9.29990
H         56.31858       62.19779       10.41259
N         59.61937       62.12947        9.46524
C         60.42147       61.03709       10.01786
C         61.43304       61.52617       11.04278
O         61.43338       61.03190       12.16230
C         61.13034       60.32714        8.83591
C         62.00919       59.13129        9.22304
C         62.55629       58.46382        7.95057
C         63.43454       57.24982        8.27104
N         63.87501       56.59049        7.04063
H         59.59532       62.23436        8.43935
H         59.74555       60.30763       10.51519
H         61.76395       61.05884        8.28707
H         60.34006       59.97007        8.13918
H         61.40039       58.39544        9.79038
H         62.85431       59.47286        9.86056
H         63.15305       59.19886        7.36514
H         61.69831       58.12885        7.32693
H         62.85532       56.52374        8.88297
H         64.32255       57.57761        8.85590
H         64.47549       55.77048        7.28523
H         63.04578       56.24942        6.50105
H         64.42821       57.25339        6.45024
N         62.33613       62.48401       10.71772
C         63.38786       62.96013       11.61460
C         62.79262       63.55801       12.87678
O         63.16181       63.12300       13.95856
C         64.30476       63.94272       10.85454
C         65.03888       63.17008        9.73438
C         65.85346       64.04270        8.84738
O         67.16303       63.78572        8.68241
O         65.32041       64.93233        8.20609
H         62.26871       62.88653        9.77324
H         64.03221       62.10538       11.92333
H         65.06375       64.38308       11.53917
H         63.69107       64.77015       10.43679
H         64.32415       62.64698        9.07222
H         65.69692       62.40116       10.19416
N         61.82360       64.51050       12.81484
C         61.15812       65.05505       13.98216
H         60.07840       64.79514       13.93959
H         61.57043       64.65568       14.93270
H         61.26103       66.15927       13.98767
H         61.50673       64.83591       11.89713
Ca        67.14334       65.51279        5.60261
O         64.23939       66.81774        4.16244
H         64.10592       66.47739        3.24426
H         65.19123       66.63892        4.35871
O         65.27701       63.61463        4.33963
H         64.84341       62.76180        4.59287
H         64.71232       63.97674        3.61172

Ca 1.0



