%chk=holoCaM.loop3.water2.frame147.chk
%nprocshared=20
%mem=10GB
%nosave
#b3lyp/svp scf=(tight,noincore,xqc) Test 
#IOP(5/87=12) Density=Current Pop=(MK,readradii) iop(6/33=2) iop(6/42=6)

holoCaM.loop3.water2.frame147 

   0  1 
C          5.57151       85.78867        0.08003
C          6.21693       85.96840        1.41446
O          7.36126       86.39747        1.47110
H          4.65775       86.41462        0.02456
H          6.26939       86.08357       -0.73168
H          5.29945       84.71996       -0.05135
N          5.53813       85.62670        2.54330
C          6.12190       85.71308        3.86838
C          6.27421       84.29317        4.37433
O          5.26651       83.61192        4.51424
C          5.23094       86.60106        4.77079
C          5.91388       86.98479        6.04830
O          7.17094       86.57295        6.26981
O          5.34952       87.69967        6.85766
H          4.58227       85.24628        2.45452
H          7.12546       86.18783        3.80352
H          4.26198       86.09607        4.97839
H          5.01946       87.55378        4.23909
N          7.50985       83.75387        4.60426
C          7.69674       82.33255        4.88815
C          7.87150       82.05788        6.36894
O          7.91604       80.88917        6.72850
C          8.89502       81.75131        4.10365
C          8.92184       82.06314        2.59798
C          7.69558       81.56932        1.82103
C          7.86194       81.89038        0.32700
N          6.69291       81.46930       -0.44218
H          8.34640       84.35063        4.51320
H          6.78467       81.77600        4.57697
H          8.91666       80.64771        4.24759
H          9.83355       82.16722        4.53195
H          9.83151       81.57927        2.17745
H          9.02350       83.16018        2.45452
H          6.78422       82.07846        2.20061
H          7.57986       80.47153        1.95457
H          8.76532       81.37082       -0.06520
H          8.00545       82.98661        0.19606
H          6.84821       81.70220       -1.44996
H          6.55276       80.43720       -0.35018
H          5.84216       81.97631       -0.10625
N          7.92561       83.06311        7.29224
C          7.93765       82.81541        8.72958
C          6.58718       83.22648        9.33861
O          6.40036       83.02822       10.53069
C          9.19248       83.46255        9.37638
C          9.13544       84.95134        9.34156
O          8.25663       85.52465        9.95498
O          9.96157       85.67479        8.57060
H          7.88738       84.04468        6.98213
H          8.03176       81.72616        8.92540
H         10.09035       83.11114        8.82167
H          9.29369       83.14756       10.43593
N          5.56848       83.72045        8.55862
C          4.20138       83.91923        9.01816
C          3.97203       85.04177       10.00699
O          2.83303       85.18494       10.42876
H          5.70987       83.86140        7.54922
H          3.84088       82.96513        9.45987
H          3.55976       84.14044        8.13629
N          4.96289       85.87139       10.44051
C          4.72178       86.88601       11.46662
C          3.79786       88.00650       11.00210
O          3.35470       88.77506       11.84580
C          6.04872       87.44984       12.02161
C          6.78338       88.36674       11.07079
N          7.14647       89.61013       11.46062
O          7.07110       87.98410        9.94968
H          5.91159       85.73022       10.08730
H          4.23423       86.35294       12.31374
H          6.70774       86.59392       12.28409
H          5.83811       88.00296       12.96220
H          6.92926       89.95657       12.40590
H          7.67125       90.22322       10.82220
N          3.49329       88.18825        9.68289
C          2.59591       89.22054        9.19538
C          3.29884       90.29001        8.38097
O          2.60114       91.15230        7.87204
H          3.91783       87.57521        8.97354
H          2.08045       89.74202       10.03195
H          1.81114       88.73258        8.57802
N          4.66446       90.35770        8.27895
C          5.34914       91.48350        7.64050
C          6.39471       91.06525        6.62684
O          6.86817       89.94296        6.62881
C          6.05472       92.29987        8.73285
C          5.05465       93.03004        9.58178
C          4.69641       92.56427       10.85619
C          4.47344       94.20637        9.08541
C          3.76331       93.27143       11.62193
C          3.55698       94.91957        9.85704
C          3.19693       94.45390       11.12916
O          2.31243       95.13511       11.88410
H          5.24438       89.65769        8.75881
H          4.62309       92.13246        7.10375
H          6.75751       93.05332        8.31322
H          6.66501       91.60205        9.34015
H          5.12571       91.65152       11.24962
H          4.74675       94.57860        8.10506
H          3.48332       92.90265       12.60037
H          3.13078       95.83388        9.46434
H          1.91222       95.96306       11.58151
N          6.79680       91.99706        5.71432
C          7.83241       91.80129        4.71026
C          8.76855       93.00366        4.76752
O          8.30502       94.12405        4.61804
C          7.16807       91.64165        3.30556
C          6.36059       90.31160        3.28226
C          8.21421       91.66122        2.17463
C          5.68060       89.99461        1.95012
H          6.31048       92.90598        5.71145
H          8.41550       90.87354        4.90486
H          6.48369       92.50082        3.12771
H          5.56698       90.35605        4.05729
H          7.03520       89.46024        3.52693
H          8.89847       90.79911        2.25954
H          7.72731       91.62915        1.18001
H          8.79413       92.60474        2.18746
H          6.42823       89.82587        1.14789
H          5.09926       89.05392        2.05249
H          4.99395       90.81566        1.65919
N         10.11321       92.82869        4.91681
C         11.07237       93.93202        4.84066
C         11.64212       93.99949        3.43515
O         11.25318       93.20078        2.60766
C         12.17380       93.73680        5.89709
O         12.87080       92.54348        5.65695
H         10.48045       91.86725        4.95341
H         10.56975       94.90418        5.03543
H         11.70081       93.70332        6.90396
H         12.88505       94.59147        5.86459
H         13.50751       92.43618        6.41027
N         12.56223       94.94048        3.08070
C         13.13321       95.00699        1.73485
C         13.82433       93.70559        1.37282
O         13.57065       93.17643        0.29856
C         14.13208       96.16239        1.63336
H         12.87246       95.62075        3.78887
H         12.32543       95.21079        0.99560
H         13.62129       97.12308        1.85637
H         14.97339       96.02438        2.34444
H         14.53855       96.21839        0.59974
N         14.67722       93.11161        2.25347
C         15.37883       91.85781        1.99481
C         14.42932       90.75392        1.56491
O         14.64440       90.17175        0.51135
C         16.14756       91.42384        3.24938
H         14.81505       93.56996        3.16868
H         16.11891       92.01998        1.17970
H         16.70411       90.48254        3.05584
H         16.87679       92.21038        3.53846
H         15.45152       91.25977        4.10093
N         13.34383       90.43007        2.31968
C         12.39227       89.38679        1.94064
C         11.79097       89.66621        0.56977
O         11.89220       88.81112       -0.29891
C         11.28542       89.25043        3.00481
C         11.83410       88.70238        4.33133
C         10.73527       88.53001        5.33503
O          9.79572       87.78836        5.09529
O         10.79131       89.17875        6.51298
H         13.18306       90.96568        3.18618
H         12.91733       88.40682        1.88332
H         10.51639       88.53773        2.63126
H         10.80860       90.23558        3.18008
H         12.60116       89.38817        4.74880
H         12.30665       87.71190        4.15592
N         11.18145       90.85064        0.29664
C         10.61955       91.19763       -0.99262
H          9.55058       91.46827       -0.86694
H         11.16251       92.07562       -1.40348
H         10.69112       90.36673       -1.72446
H         11.13328       91.55908        1.02932
Ca         8.68636       87.29668        7.74243
O          9.23262       90.75017        8.44749
H          9.68670       90.87699        9.31771
H          9.54771       91.50545        7.89016
O         10.46606       88.28191       10.19183
H         10.59902       88.95859       10.90165
H         10.08239       87.50240       10.66562

Ca 1.0



