%chk=holoCaM-CaMKII.loop3.water2.frame44.chk
%nprocshared=20
%mem=10GB
%nosave
#b3lyp/svp scf=(tight,noincore,xqc) Test 
#IOP(5/87=12) Density=Current Pop=(MK,readradii) iop(6/33=2) iop(6/42=6)

holoCaM-CaMKII.loop3.water2.frame44 

   0  1 
C         11.38836       54.86328        9.81597
C         11.53401       53.37792        9.94455
O         10.86110       52.65708        9.22310
H         10.34073       55.15303       10.03754
H         12.06292       55.39783       10.51759
H         11.64432       55.16866        8.77987
N         12.39146       52.84802       10.85902
C         12.61663       51.42205       11.02231
C         12.08750       50.97803       12.37340
O         12.35102       51.62199       13.37899
C         14.11000       51.11524       10.81863
C         14.40047       49.64702       10.92206
O         15.38301       49.20966       11.72788
O         13.76895       48.84594       10.25382
H         12.91674       53.48570       11.47749
H         12.07862       50.84880       10.23372
H         14.73860       51.67505       11.54286
H         14.38924       51.44019        9.79301
N         11.32468       49.85215       12.44472
C         10.68372       49.33381       13.65012
C         11.67550       49.19041       14.79247
O         11.40783       49.68150       15.87980
C         10.05652       47.95599       13.32252
C          9.17382       47.39238       14.44293
C          8.71406       45.96781       14.09717
C          7.74970       45.42084       15.15692
N          7.38906       44.03220       14.87022
H         11.20066       49.31879       11.57331
H          9.87059       50.03171       13.94899
H         10.87586       47.24355       13.10264
H          9.42160       48.04110       12.41233
H          8.29397       48.06071       14.56870
H          9.73739       47.35459       15.39952
H          9.61040       45.31063       14.03829
H          8.20270       45.95821       13.10930
H          6.82981       46.04744       15.16939
H          8.22412       45.47125       16.16171
H          6.70456       43.70093       15.58789
H          6.95195       43.95607       13.92315
H          8.24128       43.42693       14.91454
N         12.85421       48.54029       14.59335
C         13.84947       48.29670       15.63776
C         15.12139       49.12538       15.46065
O         16.00189       49.01688       16.30335
C         14.14476       46.77729       15.73047
C         14.67871       46.13460       14.46505
O         14.90348       44.93695       14.45207
O         14.88878       46.87026       13.35468
H         13.04505       48.21714       13.63709
H         13.44248       48.60787       16.62549
H         13.19462       46.26391       15.99457
H         14.86674       46.59799       16.55688
N         15.27026       50.01900       14.44071
C         16.40751       50.92077       14.31235
C         17.76337       50.27653       14.06772
O         18.72697       51.02938       14.02773
H         14.50524       50.14204       13.76797
H         16.47284       51.52568       15.24337
H         16.21852       51.62423       13.47352
N         17.95590       48.92937       13.92955
C         19.30459       48.35544       13.86303
C         20.07411       48.69486       12.58216
O         21.25155       48.36988       12.52174
C         19.28152       46.82836       14.12553
C         18.75478       46.00143       12.98331
N         19.48317       44.98711       12.46098
O         17.64902       46.23179       12.53931
H         17.14532       48.29854       13.98023
H         19.86119       48.78573       14.72528
H         18.65411       46.63701       15.02362
H         20.31108       46.48676       14.36291
H         20.41458       44.75393       12.83376
H         19.10408       44.41479       11.69166
N         19.48350       49.31316       11.51551
C         20.17951       49.63818       10.27315
C         19.63231       48.85976        9.08544
O         20.03215       49.14011        7.96497
H         18.48227       49.55256       11.55736
H         21.27008       49.43569       10.33889
H         20.05076       50.72686       10.08977
N         18.73757       47.84860        9.26312
C         18.14256       47.03478        8.20477
C         16.58496       47.12979        8.25014
O         16.18333       47.70361        9.46091
C         18.56163       45.57410        8.42795
C         19.99848       45.31737        8.03672
C         20.98347       45.05237        9.00095
C         20.35222       45.29916        6.67533
C         22.29714       44.76901        8.61008
C         21.66091       45.00142        6.28597
C         22.63836       44.73200        7.25352
O         23.90199       44.42956        6.89233
H         18.46017       47.60263       10.22328
H         18.49346       47.33543        7.19278
H         17.94230       44.89111        7.80773
H         18.37607       45.31565        9.49274
H         20.74013       45.06590       10.05243
H         19.60665       45.48927        5.91283
H         23.04875       44.56617        9.36250
H         21.91081       44.97106        5.23253
H         24.17138       44.36780        5.96446
N         16.07813       47.98970        7.17233
C         14.60300       47.97698        7.06847
C         14.10505       46.93697        6.06968
O         14.58546       46.90019        4.94508
C         14.08724       49.41027        6.76395
C         12.54431       49.46072        6.90578
C         14.56873       49.94556        5.40308
C         11.98262       50.87622        6.83400
H         16.52174       47.77516        6.24957
H         14.16459       47.73421        8.05968
H         14.50995       50.07119        7.55441
H         12.26904       49.06193        7.90672
H         12.05176       48.82856        6.13617
H         15.67603       49.91467        5.34462
H         14.14053       49.35757        4.56606
H         14.27157       51.00500        5.26903
H         10.90084       50.84916        7.06045
H         12.48039       51.51835        7.58867
H         12.11327       51.31550        5.82536
N         13.08668       46.09724        6.41016
C         12.51905       45.09909        5.51220
C         11.11122       45.49459        5.07932
O         10.62120       46.54109        5.48258
C         12.55042       43.72361        6.20121
O         11.73655       43.71952        7.34624
H         12.66180       46.19618        7.33999
H         13.12417       45.02638        4.58247
H         13.60599       43.46278        6.45396
H         12.19398       42.92653        5.51760
H         12.33683       43.70240        8.13603
N         10.41904       44.70362        4.21057
C          9.10345       45.03118        3.66265
C          8.05835       45.21559        4.74263
O          7.36911       46.22404        4.72276
C          8.64657       43.93560        2.69527
H         10.86927       43.83131        3.89336
H          9.18023       45.97338        3.07373
H          9.38477       43.82947        1.87198
H          8.54852       42.96055        3.21806
H          7.66551       44.20736        2.24952
N          7.88256       44.28003        5.71635
C          6.92230       44.43534        6.80518
C          7.22674       45.67570        7.62540
O          6.32870       46.47951        7.83753
C          6.94624       43.20347        7.71615
H          8.47501       43.43579        5.69312
H          5.89302       44.51026        6.38672
H          6.19471       43.31705        8.52761
H          6.68731       42.29656        7.12934
H          7.94898       43.06249        8.17236
N          8.48499       45.90255        8.10498
C          8.83076       47.06037        8.93311
C          8.60026       48.39752        8.22356
O          8.66173       49.42369        8.88703
C         10.30333       46.98920        9.39350
C         10.62060       45.74163       10.23854
C         12.06696       45.71163       10.64543
O         12.94392       45.68427        9.79843
O         12.40576       45.67938       11.94684
H          9.21357       45.21125        7.87506
H          8.17456       47.03768        9.83185
H         10.53680       47.88483       10.00087
H         10.94843       47.01076        8.49349
H         10.41628       44.81345        9.66940
H          9.97981       45.73921       11.14545
N          8.33060       48.47296        6.89088
C          8.02736       49.71416        6.21349
H          7.11310       50.16819        6.64975
H          8.86908       50.42379        6.29938
H          7.84367       49.51759        5.13491
H          8.33679       47.62403        6.32416
Ca        15.43594       46.40055       11.18782
O         15.84170       43.98082        9.43041
H         15.75056       43.84141        8.45488
H         16.68252       43.51714        9.67328
O         15.38389       43.05468       12.22897
H         14.67494       43.73910       12.12893
H         16.16484       43.55204       12.58099

Ca 1.0



