%chk=holoCaM.loop1.water2.frame18.chk
%nprocshared=20
%mem=10GB
%nosave
#b3lyp/svp scf=(tight,noincore,xqc) Test 
#IOP(5/87=12) Density=Current Pop=(MK,readradii) iop(6/33=2) iop(6/42=6)

holoCaM.loop1.water2.frame18 

   0  1 
C         84.43362       14.76487       12.93841
C         85.03365       13.67286       12.10766
O         85.43256       12.66093       12.66246
H         83.55449       14.36739       13.48839
H         85.18626       15.12973       13.66739
H         84.10382       15.61685       12.30840
N         85.09934       13.77869       10.75459
C         85.63619       12.69918        9.94568
C         87.15562       12.66028       10.04579
O         87.79035       13.66145        9.74117
C         85.20036       12.85051        8.48783
C         85.41637       11.56742        7.75025
O         85.05879       11.48290        6.59072
O         85.89404       10.47446        8.38603
H         84.69063       14.60706       10.29444
H         85.16927       11.75618       10.31338
H         85.72449       13.70010        7.99671
H         84.10588       13.04593        8.45517
N         87.80339       11.54416       10.48563
C         89.23387       11.54010       10.78690
C         90.13212       11.23793        9.58346
O         91.31854       11.51316        9.70076
C         89.54671       10.57584       11.95302
C         88.71700       10.82467       13.23318
C         89.01180       12.17712       13.90287
C         88.34434       12.32062       15.28613
N         86.88610       12.38491       15.21473
H         87.22592       10.74389       10.77119
H         89.50705       12.56007       11.13393
H         90.62635       10.63147       12.21086
H         89.34725        9.53977       11.61615
H         88.97500       10.01692       13.95128
H         87.63815       10.74044       13.00740
H         88.70150       13.01927       13.24776
H         90.10865       12.24120       14.06472
H         88.71029       13.26010       15.75494
H         88.64931       11.47174       15.93634
H         86.60325       13.23872       14.68524
H         86.49708       11.52396       14.77318
H         86.49660       12.46114       16.18174
N         89.68181       10.66341        8.42204
C         90.54968       10.45708        7.24931
C         90.00678       11.13803        5.98797
O         90.65887       11.05546        4.95581
C         90.84359        8.95628        7.00928
C         89.67784        8.11708        6.57184
O         89.84878        6.93107        6.33934
O         88.45979        8.65422        6.39648
H         88.70088       10.35410        8.36961
H         91.54728       10.91077        7.43829
H         91.27315        8.52267        7.93856
H         91.61877        8.87455        6.21423
N         88.84622       11.85657        5.99812
C         88.33018       12.58201        4.84864
C         87.83857       11.69219        3.72448
O         88.28236       11.86564        2.59880
H         88.31756       11.96274        6.87394
H         89.10151       13.29613        4.48313
H         87.45546       13.18098        5.18220
N         86.87435       10.75451        3.95345
C         86.22773        9.95909        2.90473
C         84.70236       10.15488        2.90773
O         84.02235        9.44202        2.18263
C         86.66400        8.47401        3.01785
C         86.25587        7.77533        4.27763
O         86.74687        6.69833        4.57320
O         85.38891        8.35905        5.10560
H         86.57461       10.60576        4.92515
H         86.58542       10.27813        1.90186
H         87.77526        8.47312        2.97913
H         86.29068        7.88562        2.15340
N         84.10017       11.14242        3.64317
C         82.67772       11.45234        3.57405
C         81.79964       10.69211        4.55517
O         80.60999       10.96865        4.56469
H         84.68764       11.81719        4.15104
H         82.30725       11.33177        2.53185
H         82.54955       12.52767        3.82802
N         82.28339        9.73067        5.39831
C         81.43714        9.00759        6.35758
C         82.06918        8.97098        7.74809
O         83.20532        9.38148        7.90384
C         81.15751        7.57427        5.84565
C         80.31150        7.57789        4.56319
O         82.35064        6.85645        5.65208
H         83.27389        9.47716        5.33895
H         80.45975        9.52576        6.46758
H         80.55628        7.03356        6.60758
H         82.80692        7.22527        4.85065
H         80.83929        8.09339        3.73332
H         80.09736        6.53423        4.25134
H         79.34498        8.09443        4.74755
N         81.34865        8.52072        8.82396
C         81.87851        8.46050       10.18873
C         81.64259        7.06515       10.76757
O         80.50145        6.66625       10.94572
C         81.23573        9.58849       11.05633
C         81.69845       10.96755       10.50335
C         81.61045        9.45048       12.54667
C         81.11203       12.18107       11.22296
H         80.36413        8.25440        8.67906
H         82.97384        8.64962       10.18607
H         80.12862        9.50552       10.98341
H         81.40365       11.05405        9.43693
H         82.80751       11.03524       10.56049
H         81.28503        8.47071       12.95033
H         82.70156        9.56275       12.69109
H         81.09005       10.21252       13.16031
H         81.43552       12.22278       12.28241
H         81.48285       13.10584       10.73121
H         80.00410       12.16355       11.16614
N         82.70752        6.27414       11.08538
C         82.60984        4.94264       11.68366
C         82.41899        5.05188       13.19344
O         82.38354        6.15589       13.71782
C         83.91768        4.14339       11.39809
C         84.16789        3.97032        9.89548
O         85.01139        4.79975       11.98153
H         83.64370        6.63435       10.88277
H         81.76647        4.38194       11.22433
H         83.82430        3.12747       11.84233
H         85.79836        4.20788       11.86215
H         83.31661        3.44420        9.41754
H         84.31483        4.95522        9.41081
H         85.08895        3.36920        9.73410
N         82.34225        3.92927       13.96701
C         82.40035        3.97194       15.42906
C         83.76832        4.46152       15.89506
O         83.84612        5.07996       16.94682
C         82.12301        2.58656       16.06015
C         80.68654        2.12520       15.78849
O         83.03886        1.64060       15.56868
H         82.30323        3.01143       13.50008
H         81.61880        4.66883       15.80887
H         82.24353        2.68651       17.16543
H         82.99700        0.85590       16.17543
H         80.49910        2.01040       14.70123
H         80.50510        1.14871       16.28529
H         79.96660        2.86293       16.20378
N         84.89858        4.17997       15.17937
C         86.23615        4.63129       15.57357
C         86.39198        6.14651       15.44218
O         87.41364        6.66938       15.86528
C         87.31662        3.96488       14.68875
C         87.29268        2.42948       14.77469
C         88.27691        1.80454       13.78022
C         88.24280        0.27358       13.87775
N         89.13978       -0.33631       12.89772
H         84.79791        3.61340       14.32651
H         86.40941        4.32945       16.63032
H         88.32729        4.31634       14.99411
H         87.15692        4.28007       13.63834
H         86.28501        2.03807       14.52708
H         87.54222        2.11997       15.81248
H         89.30680        2.16806       13.98702
H         87.99054        2.10934       12.74844
H         87.20658       -0.09069       13.69553
H         88.54830       -0.03538       14.90196
H         89.11216       -1.37538       13.01131
H         88.82807       -0.09462       11.92879
H         90.11961       -0.00354       13.04797
N         85.44469        6.90326       14.81845
C         85.53796        8.33639       14.58584
C         84.39304        9.07366       15.28348
O         84.30275       10.28333       15.13150
C         85.51241        8.58498       13.05563
C         86.63792        7.81509       12.33435
C         86.63634        8.03120       10.84442
O         85.53562        7.78478       10.11720
O         87.65286        8.38435       10.27243
H         84.61733        6.44517       14.43077
H         86.49125        8.74614       14.98704
H         85.60428        9.67284       12.85177
H         84.54014        8.23641       12.64865
H         86.49903        6.73189       12.50823
H         87.62487        8.10111       12.75458
N         83.49409        8.42061       16.08183
C         82.40088        9.07021       16.77519
H         81.44222        8.60893       16.45663
H         82.51958        8.91617       17.86926
H         82.35466       10.15978       16.57432
H         83.57353        7.41028       16.23486
Ca        85.83559        8.57631        7.25029
O         87.39573        5.54975        8.56331
H         87.21434        4.72978        8.03914
H         88.04281        6.05544        8.01214
O         84.88032        5.66117        6.89740
H         84.43644        4.77807        6.95008
H         84.22716        6.29222        7.29120

Ca 1.0



