%chk=holoCaM-CaMKII.loop4.water2.frame156.chk
%nprocshared=20
%mem=10GB
%nosave
#b3lyp/svp scf=(tight,noincore,xqc) Test 
#IOP(5/87=12) Density=Current Pop=(MK,readradii) iop(6/33=2) iop(6/42=6)

holoCaM-CaMKII.loop4.water2.frame156 

   -3  1 
C         83.11032       86.29812       46.53812
C         82.93548       84.82582       46.75399
O         83.37498       84.04655       45.92232
H         82.64452       86.88217       47.36041
H         84.19343       86.54033       46.50799
H         82.63523       86.59293       45.58096
N         82.33509       84.37120       47.88504
C         82.19203       82.96007       48.19898
C         81.13008       82.29659       47.31932
O         80.04694       82.84685       47.18102
C         81.90025       82.80812       49.70512
C         82.06039       81.38573       50.08287
O         81.16359       80.76501       50.61603
O         83.21661       80.79610       49.75854
H         82.03924       85.06256       48.59160
H         83.18322       82.47955       48.02519
H         80.90163       83.20680       49.98112
H         82.68170       83.36044       50.27201
N         81.38857       81.10623       46.69581
C         80.50998       80.47224       45.70534
C         79.90838       79.14090       46.20095
O         78.96807       78.67777       45.57025
C         81.32415       80.27708       44.37337
C         82.06486       81.56574       43.92073
C         80.50413       79.69953       43.20487
C         81.15650       82.72783       43.51789
H         82.28334       80.65777       46.90323
H         79.64600       81.14488       45.51315
H         82.12519       79.53820       44.58361
H         82.72283       81.32473       43.05700
H         82.73696       81.90336       44.73407
H         80.13645       78.68063       43.43401
H         79.63984       80.34885       42.95812
H         81.14936       79.60317       42.30376
H         81.78540       83.59990       43.23940
H         80.54046       82.45804       42.63605
H         80.49635       83.02872       44.35534
N         80.38468       78.45991       47.29139
C         79.79776       77.20066       47.78570
C         79.43506       77.24487       49.28292
O         78.98794       76.23443       49.80703
C         80.66081       75.96519       47.40720
C         82.06597       75.92347       47.92289
O         82.75769       74.93849       47.72970
O         82.59987       76.97515       48.53685
H         81.21068       78.83045       47.77692
H         78.83393       77.00243       47.26661
H         80.71043       75.88573       46.29922
H         80.14039       75.05751       47.78324
N         79.48408       78.40292       49.99866
C         78.92636       78.56517       51.33934
C         79.72397       78.01382       52.51230
O         79.09807       77.65785       53.50068
H         79.76842       79.25932       49.51109
H         77.88387       78.18049       51.36545
H         78.83752       79.65568       51.53645
N         81.08234       78.10954       52.56983
C         81.86326       77.85225       53.78898
C         82.40414       79.15901       54.38062
O         83.10751       79.10607       55.38058
C         82.99842       76.83438       53.52100
C         83.83655       77.19146       52.33239
O         83.96373       76.40073       51.41096
O         84.42463       78.39426       52.26153
H         81.57924       78.46783       51.74119
H         81.23191       77.41712       54.59395
H         82.56451       75.82599       53.35287
H         83.65558       76.76749       54.41732
N         82.08416       80.37128       53.84460
C         82.56846       81.64745       54.34213
C         84.06731       81.76057       54.20720
O         84.71764       82.22225       55.13247
H         81.45588       80.41835       53.03515
H         82.23906       81.82196       55.39023
H         82.11960       82.44537       53.71076
N         84.66658       81.38818       53.04294
C         86.10282       81.47737       52.76489
C         86.33028       81.52751       51.26706
O         85.59644       80.89818       50.52622
C         86.90043       80.27887       53.33549
C         87.04984       80.31294       54.85898
C         87.82695       79.14888       55.41769
N         88.12906       79.12822       56.73559
O         88.18268       78.22479       54.69994
H         84.04084       81.04397       52.30023
H         86.49897       82.43467       53.16754
H         87.93101       80.30487       52.91531
H         86.44353       79.32713       53.01236
H         86.06346       80.29537       55.35445
H         87.58762       81.25067       55.11786
H         87.84837       79.90921       57.34742
H         88.65561       78.34209       57.14298
N         87.38215       82.21681       50.74801
C         87.61404       82.32084       49.31458
C         88.82552       81.49405       48.93373
O         89.94954       81.83960       49.26908
C         87.70609       83.81564       48.89358
C         88.26985       84.00795       47.47776
C         86.31453       84.47014       48.96505
H         88.05149       82.66760       51.39022
H         86.75847       81.89130       48.74969
H         88.39658       84.34131       49.58974
H         88.30513       85.08890       47.22545
H         89.31348       83.63614       47.42248
H         87.65131       83.47911       46.72528
H         86.38293       85.55115       48.71847
H         85.62686       83.99237       48.23096
H         85.87279       84.36906       49.97752
N         88.62847       80.36566       48.19303
C         89.67988       79.55000       47.59950
C         90.33083       80.36342       46.48737
O         89.82176       81.42299       46.17015
C         88.99824       78.25669       47.05630
C         89.87962       77.12505       46.58281
N         89.84596       75.92427       47.20708
O         90.58869       77.26021       45.60307
H         87.66083       80.08294       48.01253
H         90.40740       79.28009       48.39502
H         88.29082       78.52523       46.24105
H         88.38895       77.85523       47.89213
H         89.23798       75.76347       48.02310
H         90.42484       75.14364       46.86403
N         91.45914       79.95982       45.85371
C         92.02915       80.68990       44.72151
C         91.09858       80.64690       43.50932
O         90.86925       81.68176       42.90014
C         93.41113       80.11044       44.37739
C         94.04348       80.81303       43.19973
C         94.27400       82.20172       43.21801
C         94.39987       80.07450       42.06162
C         94.83784       82.83697       42.10806
C         94.97011       80.71011       40.95759
C         95.18688       82.09507       40.97498
O         95.72743       82.72067       39.91072
H         91.93834       79.11682       46.19878
H         92.19088       81.75081       45.01449
H         93.30996       79.02244       44.17090
H         94.07322       80.23009       45.26280
H         94.01070       82.79773       44.08265
H         94.23507       79.00485       42.02773
H         95.00094       83.90747       42.12833
H         95.23889       80.12391       40.08869
H         95.97657       82.24187       39.10737
N         90.51077       79.47963       43.12585
C         89.57566       79.34759       42.00741
C         88.43969       80.35455       42.13335
O         88.16909       81.07157       41.18024
C         89.02827       77.89629       41.92142
C         90.15147       76.88368       41.61403
C         89.61870       75.49559       41.40022
O         88.98016       74.84988       42.39448
O         89.78637       74.93536       40.32816
H         90.70958       78.65112       43.69390
H         90.10308       79.55622       41.05060
H         88.28883       77.84721       41.09124
H         88.50615       77.61574       42.86496
H         90.88947       76.84154       42.44110
H         90.68109       77.20963       40.69275
N         87.77285       80.49707       43.30814
C         86.71920       81.48816       43.53754
C         87.25423       82.90735       43.37186
O         86.61286       83.71236       42.71182
C         86.09672       81.29471       44.94218
C         85.47335       79.88647       45.05521
C         84.80113       79.61380       46.36371
O         83.76804       78.96888       46.38083
O         85.40197       79.91154       47.52504
H         88.06508       79.88972       44.08695
H         85.89062       81.33678       42.80933
H         85.30637       82.06171       45.10012
H         86.87481       81.42723       45.72621
H         86.25860       79.11711       44.94792
H         84.73737       79.73060       44.23590
N         88.44773       83.26410       43.91928
C         89.04500       84.58031       43.82471
H         90.00639       84.51129       43.27151
H         88.38620       85.31005       43.31266
H         89.26233       84.95474       44.84695
H         88.98728       82.55101       44.40672
Ca        83.56222       78.64227       49.57090
O         85.86395       76.89189       47.53585
H         86.25902       76.66934       46.65625
H         85.10045       76.27124       47.63094
O         86.76809       77.87760       50.31421
H         87.18533       77.11583       49.84092
H         86.70348       77.56814       51.25143

Ca 1.0



