%chk=holoCaM.loop3.water2.frame38.chk
%nprocshared=20
%mem=10GB
%nosave
#b3lyp/svp scf=(tight,noincore,xqc) Test 
#IOP(5/87=12) Density=Current Pop=(MK,readradii) iop(6/33=2) iop(6/42=6)

holoCaM.loop3.water2.frame38 

   0  1 
C         -2.33988       -1.95302        3.43979
C         -3.45413       -1.61546        4.37514
O         -4.55418       -2.12141        4.20184
H         -1.50716       -2.41137        4.01348
H         -2.68545       -2.67379        2.66861
H         -1.98420       -1.02817        2.94157
N         -3.22932       -0.78529        5.42913
C         -4.27580       -0.47090        6.38466
C         -5.25820        0.48860        5.73954
O         -4.87458        1.61775        5.45948
C         -3.65617        0.14765        7.64579
C         -4.59402        0.17412        8.80208
O         -5.82777       -0.36420        8.73887
O         -4.20758        0.65388        9.85442
H         -2.27388       -0.42480        5.58050
H         -4.75320       -1.43374        6.67755
H         -3.27933        1.17195        7.42975
H         -2.79322       -0.46486        7.97440
N         -6.51423        0.09230        5.39590
C         -7.39272        0.96860        4.63033
C         -8.04250        1.97986        5.55246
O         -7.88566        3.17407        5.33906
C         -8.45223        0.18682        3.81421
C         -7.89028       -0.99716        2.98882
C         -6.63052       -0.72219        2.14621
C         -6.81559        0.28484        1.00835
N         -5.55538        0.45173        0.27887
H         -6.79084       -0.88374        5.57424
H         -6.78624        1.49826        3.86045
H         -8.94908        0.91091        3.13037
H         -9.23615       -0.23056        4.48207
H         -8.69910       -1.40114        2.34157
H         -7.61719       -1.80597        3.69780
H         -6.30947       -1.68954        1.70098
H         -5.81170       -0.37367        2.80702
H         -7.13442        1.26850        1.41433
H         -7.59956       -0.08426        0.31133
H         -5.69258        1.12614       -0.50738
H         -4.81628        0.82531        0.91901
H         -5.23902       -0.46516       -0.11441
N         -8.79817        1.55619        6.60868
C         -9.51357        2.46687        7.50335
C         -8.59743        3.38159        8.31620
O         -9.10573        4.30513        8.93650
C        -10.46434        1.66764        8.42076
C         -9.72873        0.79761        9.39851
O         -9.02288        1.36164       10.39556
O         -9.79276       -0.41797        9.31215
H         -8.90923        0.53912        6.74181
H        -10.15173        3.11030        6.85820
H        -11.10802        1.03338        7.77154
H        -11.12962        2.34779        8.99349
N         -7.24763        3.19617        8.36238
C         -6.33839        4.11014        9.02881
C         -6.53498        4.21309       10.52731
O         -6.71657        5.31735       11.01971
H         -6.82126        2.39974        7.86801
H         -6.42634        5.11525        8.56113
H         -5.29668        3.75720        8.85766
N         -6.39376        3.11365       11.32042
C         -6.24884        3.17644       12.77365
C         -4.80449        2.81623       13.16253
O         -4.53071        2.70027       14.34809
C         -7.32612        2.35383       13.56354
C         -7.44324        0.82931       13.33965
N         -7.81484        0.14134       14.57203
O         -6.25846        0.30785       12.87800
H         -6.23547        2.21284       10.85916
H         -6.39227        4.21928       13.13294
H         -8.33593        2.78123       13.38409
H         -7.10404        2.52574       14.63997
H         -8.77450        0.43090       14.85982
H         -7.81268       -0.89039       14.39894
N         -3.80688        2.71057       12.22325
C         -2.40960        2.43355       12.54635
C         -2.12634        0.98453       12.91817
O         -0.98875        0.68548       13.25555
H         -4.00907        2.91193       11.23506
H         -2.08627        3.12037       13.35888
H         -1.78549        2.65689       11.65427
N         -3.09986        0.03626       12.88367
C         -2.94976       -1.35564       13.29398
C         -3.51852       -2.28936       12.23712
O         -4.64653       -2.06488       11.81563
C         -3.77016       -1.57876       14.57968
C         -3.30514       -0.71797       15.72716
C         -4.16698        0.24236       16.28195
C         -2.01679       -0.87625       16.26483
C         -3.74791        1.03179       17.35550
C         -1.60096       -0.08851       17.34241
C         -2.46710        0.86808       17.89220
O         -2.08254        1.63035       18.93547
H         -4.03100        0.32750       12.59244
H         -1.88913       -1.61071       13.51161
H         -3.69940       -2.64399       14.89053
H         -4.84031       -1.36692       14.36249
H         -5.16427        0.38258       15.88409
H         -1.33768       -1.61443       15.85717
H         -4.42261        1.76846       17.77292
H         -0.60780       -0.22537       17.75122
H         -1.20976        1.54093       19.34389
N         -2.84792       -3.40488       11.82632
C         -3.44250       -4.39744       10.92837
C         -3.55147       -5.72809       11.66145
O         -2.52415       -6.30411       11.99835
C         -2.59917       -4.55571        9.62969
C         -2.44385       -3.19722        8.90462
C         -3.24261       -5.60546        8.69629
C         -1.48347       -3.25878        7.71290
H         -1.90419       -3.58788       12.20337
H         -4.46538       -4.08007       10.62691
H         -1.58437       -4.91008        9.91936
H         -2.01943       -2.45259        9.61121
H         -3.43759       -2.82974        8.56843
H         -2.63145       -5.78327        7.79139
H         -3.31610       -6.58572        9.20075
H         -4.26217       -5.28718        8.38988
H         -1.36472       -2.24788        7.27426
H         -0.48500       -3.61326        8.04750
H         -1.86096       -3.92360        6.91151
N         -4.76782       -6.28230       11.93922
C         -4.90797       -7.59827       12.56592
C         -4.68083       -8.70751       11.54383
O         -4.50582       -8.41109       10.37510
C         -6.29609       -7.73600       13.21956
O         -7.31032       -7.61113       12.26319
H         -5.61899       -5.74942       11.69881
H         -4.16315       -7.68860       13.38716
H         -6.41254       -6.93471       13.98240
H         -6.37207       -8.72490       13.72495
H         -8.15941       -7.83399       12.72645
N         -4.66687      -10.01906       11.91348
C         -4.52820      -11.11449       10.95277
C         -5.75874      -11.20992       10.06614
O         -5.62265      -11.21863        8.85116
C         -4.32693      -12.44658       11.68079
H         -4.75356      -10.24606       12.91590
H         -3.61659      -10.95813       10.33169
H         -3.40748      -12.39552       12.30200
H         -5.19119      -12.68688       12.33418
H         -4.19617      -13.26515       10.93922
N         -7.00166      -11.26732       10.62747
C         -8.24877      -11.35451        9.86838
C         -8.34269      -10.24608        8.83857
O         -8.58365      -10.53264        7.67415
C         -9.44547      -11.27539       10.82696
H         -7.06193      -11.21686       11.65653
H         -8.29846      -12.33574        9.34552
H         -9.44232      -10.31302       11.38374
H        -10.39951      -11.35915       10.26411
H         -9.39986      -12.10718       11.56224
N         -8.10152       -8.95690        9.19952
C         -8.10050       -7.83054        8.27122
C         -7.16105       -8.10126        7.10674
O         -7.59667       -8.04671        5.96502
C         -7.69480       -6.54770        9.03531
C         -7.70869       -5.28912        8.15835
C         -7.37147       -4.07315        8.97407
O         -6.39289       -3.39798        8.69869
O         -8.15770       -3.71428       10.00699
H         -7.86495       -8.78160       10.18508
H         -9.13109       -7.68737        7.87523
H         -6.67892       -6.67476        9.47179
H         -8.41496       -6.40538        9.87176
H         -8.71758       -5.14978        7.71539
H         -6.96940       -5.39971        7.33534
N         -5.86301       -8.43301        7.32822
C         -4.93542       -8.72754        6.26042
H         -3.94940       -9.01005        6.68860
H         -5.31221       -9.57811        5.65327
H         -4.80333       -7.83350        5.61665
H         -5.52725       -8.50413        8.29182
Ca        -6.75990       -0.13044       10.72957
O         -9.69754       -1.45728       12.08332
H         -9.85177       -0.84290       12.84294
H        -10.54359       -1.42559       11.57113
O         -7.03067       -3.17804       12.75536
H         -7.95641       -3.49314       12.90529
H         -6.49123       -3.64826       13.43951

Ca 1.0



