%chk=holoCaM-CaMKII.loop4.water2.frame163.chk
%nprocshared=20
%mem=10GB
%nosave
#b3lyp/svp scf=(tight,noincore,xqc) Test 
#IOP(5/87=12) Density=Current Pop=(MK,readradii) iop(6/33=2) iop(6/42=6)

holoCaM-CaMKII.loop4.water2.frame163 

   -3  1 
C         87.96173       66.39916       23.07998
C         87.53759       65.09791       23.69149
O         87.79770       64.05845       23.10689
H         89.06428       66.39708       22.94825
H         87.47188       66.52630       22.09327
H         87.68968       67.25971       23.72756
N         86.90682       65.07765       24.89513
C         86.53872       63.84713       25.58005
C         85.45561       63.06769       24.82262
O         84.44197       63.64753       24.46082
C         86.13519       64.17522       27.02813
C         85.96724       62.91038       27.79119
O         84.93938       62.69186       28.40056
O         86.94576       61.98898       27.74403
H         86.73916       65.97766       25.37283
H         87.45897       63.22400       25.65659
H         85.21706       64.80162       27.07413
H         86.96953       64.73489       27.50578
N         85.62601       61.73394       24.56053
C         84.74277       60.90984       23.72278
C         83.98596       59.82938       24.50633
O         82.98756       59.36014       23.97589
C         85.61052       60.29270       22.56973
C         86.03319       61.40983       21.58473
C         84.93304       59.12887       21.81659
C         87.15727       60.99987       20.63094
H         86.46269       61.28522       24.94834
H         83.94129       61.54753       23.28643
H         86.51889       59.86121       23.04093
H         86.41427       62.27725       22.15180
H         85.14590       61.74927       21.00590
H         83.99078       59.45928       21.33417
H         85.60686       58.69908       21.04988
H         84.72099       58.28823       22.51067
H         88.06303       60.72508       21.21307
H         86.86799       60.15282       19.97961
H         87.41069       61.85882       19.97462
N         84.35744       59.38255       25.74018
C         83.57989       58.38615       26.49357
C         83.00334       58.98377       27.77864
O         82.33214       58.27021       28.51073
C         84.39779       57.08793       26.70222
C         85.70667       57.33694       27.37131
O         86.74824       57.15973       26.76033
O         85.73172       57.89968       28.58593
H         85.20928       59.76463       26.17390
H         82.68555       58.06351       25.91812
H         84.59367       56.64671       25.69949
H         83.81182       56.34822       27.28858
N         83.12542       60.31395       28.05342
C         82.41332       60.99515       29.11895
C         82.82594       60.62125       30.52177
O         81.94966       60.25078       31.29056
H         83.64888       60.91675       27.40807
H         81.32119       60.83249       28.98242
H         82.58161       62.08845       29.01764
N         84.11202       60.78628       30.95971
C         84.47860       60.68399       32.37618
C         85.01677       62.00644       32.92740
O         85.17256       62.10261       34.13668
C         85.48326       59.54331       32.63735
C         86.88422       59.86532       32.19219
O         87.12465       60.10977       31.02724
O         87.88383       59.90725       33.09348
H         84.83153       61.04559       30.27332
H         83.56552       60.44186       32.96217
H         85.12433       58.61038       32.15165
H         85.52398       59.36103       33.73325
N         85.35672       63.04996       32.11033
C         85.85424       64.32765       32.58781
C         87.27129       64.62399       32.13245
O         87.69660       65.75206       32.33995
H         85.26621       62.96746       31.09097
H         85.82969       64.40207       33.69609
H         85.17800       65.11276       32.18595
N         88.08620       63.67921       31.56693
C         89.46915       63.95965       31.17287
C         89.74453       63.57242       29.73190
O         88.88418       63.01771       29.07159
C         90.45018       63.22309       32.10827
C         90.37734       63.77154       33.54102
C         91.45198       63.21364       34.44294
N         91.55644       63.66340       35.71375
O         92.24383       62.37632       34.03316
H         87.74380       62.71306       31.46021
H         89.68271       65.04864       31.24382
H         91.48726       63.39601       31.75234
H         90.25815       62.12718       32.09479
H         89.37900       63.55885       33.97963
H         90.52311       64.87308       33.50165
H         90.90595       64.37813       36.07177
H         92.29654       63.30750       36.33643
N         90.95718       63.86032       29.18141
C         91.35254       63.55284       27.81320
C         92.56146       62.63256       27.86427
O         93.53014       62.95719       28.53870
C         91.68077       64.87534       27.06485
C         92.16500       64.61910       25.62750
C         90.44712       65.79231       27.01509
H         91.65345       64.35217       29.76235
H         90.53074       63.04882       27.25615
H         92.49174       65.40704       27.61066
H         91.38248       64.10195       25.03413
H         92.40920       65.58087       25.12820
H         93.08758       64.00577       25.62531
H         90.09773       66.04260       28.03829
H         90.69877       66.74500       26.50221
H         89.61525       65.30088       26.46451
N         92.59125       61.48780       27.12719
C         93.73100       60.57824       27.09084
C         94.54386       60.85499       25.83446
O         94.16779       61.72354       25.06475
C         93.18664       59.12482       27.13584
C         94.24417       58.05850       27.27992
N         95.03134       58.01108       28.37868
O         94.38699       57.22186       26.40166
H         91.80750       61.29477       26.48915
H         94.39023       60.75825       27.96683
H         92.59499       58.93992       26.20983
H         92.50231       59.01875       28.00340
H         94.91762       58.69733       29.13781
H         95.75214       57.28008       28.47300
N         95.68539       60.16714       25.56628
C         96.44980       60.31608       24.33174
C         95.58777       59.95923       23.12747
O         95.49534       60.76298       22.21035
C         97.68847       59.39943       24.39426
C         98.49616       59.40968       23.12035
C         99.12243       60.58180       22.66342
C         98.62591       58.22608       22.37614
C         99.86769       60.56420       21.47898
C         99.36727       58.21143       21.19472
C         99.99263       59.38073       20.74164
O        100.71398       59.37677       19.60298
H         96.02280       59.49113       26.26364
H         96.80045       61.36861       24.23252
H         97.34378       58.36365       24.60641
H         98.33858       59.71169       25.24066
H         99.03768       61.50550       23.22230
H         98.14895       57.31225       22.70841
H        100.34940       61.47053       21.13409
H         99.45390       57.28944       20.63426
H        100.82381       58.57665       19.06908
N         94.92472       58.76667       23.06856
C         94.10272       58.35552       21.92631
C         92.90543       59.26596       21.64316
O         92.24688       59.04262       20.63648
C         93.62021       56.89451       22.08989
C         92.65916       56.68684       23.27554
C         92.23001       55.25195       23.37090
O         92.52173       54.53150       24.47079
O         91.60676       54.73383       22.45793
H         95.04781       58.11541       23.85645
H         94.75848       58.38391       21.02776
H         94.50968       56.23899       22.21793
H         93.10547       56.58411       21.15344
H         91.75428       57.31927       23.16014
H         93.15790       56.97047       24.22050
N         92.57304       60.31205       22.45206
C         91.47515       61.23203       22.17923
C         92.02470       62.57231       21.70494
O         91.40866       63.18082       20.84140
C         90.55834       61.37914       23.41430
C         90.09006       60.00645       23.93068
C         89.12239       60.10550       25.07524
O         88.05856       59.51326       25.01971
O         89.43639       60.78965       26.18977
H         93.12100       60.48244       23.29767
H         90.84208       60.83771       21.35312
H         89.68154       62.00440       23.13588
H         91.11037       61.89151       24.23022
H         90.97473       59.44117       24.28921
H         89.61425       59.43472       23.10384
N         93.22404       63.04846       22.15381
C         93.86467       64.24758       21.65636
H         94.84831       63.97186       21.21606
H         93.26547       64.75855       20.87602
H         94.04128       64.94864       22.49813
H         93.74786       62.53039       22.86311
Ca        86.65513       59.90713       28.44521
O         89.85231       59.25124       30.06229
H         89.81203       59.99896       30.70956
H         89.96689       58.44299       30.62287
O         89.95333       57.76909       27.41420
H         90.66674       57.34549       27.95367
H         89.12836       57.30359       27.69841

Ca 1.0



