%chk=holoCaM-CaMKII.loop4.water1.frame329.chk
%nprocshared=20
%mem=10GB
%nosave
#b3lyp/svp scf=(tight,noincore,xqc) Test 
#IOP(5/87=12) Density=Current Pop=(MK,readradii) iop(6/33=2) iop(6/42=6)

holoCaM-CaMKII.loop4.water1.frame329 

   -3  1 
C         42.87612       35.55055       67.46276
C         43.92538       34.91292       68.32234
O         45.10241       35.00031       68.00409
H         42.31008       36.29810       68.05670
H         43.33398       36.05387       66.58549
H         42.17454       34.76917       67.09946
N         43.55410       34.23558       69.44114
C         44.49726       33.54894       70.31404
C         45.23135       32.46349       69.54083
O         44.58746       31.62312       68.92779
C         43.74537       32.95335       71.51749
C         44.66541       32.19739       72.42438
O         44.44827       30.89057       72.63909
O         45.61646       32.74995       72.95052
H         42.54806       34.20236       69.67227
H         45.22667       34.28707       70.71565
H         42.94927       32.26448       71.16029
H         43.26468       33.77328       72.09595
N         46.59354       32.41627       69.55850
C         47.38185       31.44665       68.80757
C         47.77818       30.27400       69.69761
O         47.60884       29.14432       69.25923
C         48.62157       32.13295       68.14539
C         48.17011       33.30693       67.23093
C         49.44102       31.09772       67.34435
C         49.31704       34.03494       66.51863
H         47.10172       33.09315       70.14749
H         46.77541       31.02877       67.97054
H         49.27692       32.54291       68.94645
H         47.64156       34.05880       67.85388
H         47.46219       32.93825       66.45676
H         49.78315       30.26921       67.99759
H         48.83396       30.67465       66.51546
H         50.36189       31.54946       66.92468
H         50.07268       34.39671       67.24316
H         49.81901       33.37703       65.78118
H         48.91142       34.90542       65.96039
N         48.29509       30.45082       70.95057
C         48.78574       29.33753       71.77572
C         47.85076       28.98852       72.93219
O         48.31746       28.72900       74.03363
C         50.23828       29.61483       72.24785
C         50.33539       30.96850       72.89810
O         51.05149       31.82091       72.39550
O         49.46981       31.33042       73.86488
H         48.33810       31.40847       71.32612
H         48.80530       28.40446       71.17314
H         50.91080       29.60838       71.36153
H         50.58739       28.81976       72.93941
N         46.51679       28.83762       72.70822
C         45.58043       28.24480       73.65750
C         45.38352       28.92647       75.00452
O         44.56971       28.41126       75.75903
H         46.15069       29.06039       71.77031
H         45.90576       27.20115       73.85571
H         44.58396       28.19256       73.16612
N         46.06843       30.03423       75.41659
C         45.89777       30.59115       76.76237
C         44.60724       31.39908       76.92830
O         44.37986       31.91252       78.01526
C         47.15686       31.37748       77.20304
C         47.50058       32.59924       76.40155
O         48.59296       33.31349       76.73151
O         46.81853       32.95075       75.45633
H         46.77698       30.44931       74.79992
H         45.85771       29.74558       77.48652
H         48.02757       30.68730       77.15496
H         47.03233       31.68631       78.26389
N         43.69607       31.52480       75.91912
C         42.43212       32.23225       76.04998
C         42.54942       33.74327       76.04817
O         41.50843       34.38387       76.09359
H         43.85394       31.04236       75.02916
H         41.89373       31.87671       76.95560
H         41.80418       31.97885       75.16790
N         43.74851       34.39128       75.97376
C         43.87357       35.84379       75.89206
C         44.62082       36.25208       74.63614
O         45.13060       35.39363       73.92810
C         44.48491       36.40203       77.20174
C         45.82173       35.80306       77.69486
C         47.04783       36.21077       76.91057
N         48.04156       36.90851       77.51037
O         47.17079       35.88647       75.74162
H         44.61399       33.84338       75.95965
H         42.86573       36.30544       75.79985
H         43.74105       36.16267       77.99396
H         44.56280       37.50987       77.15746
H         45.75584       34.69690       77.74811
H         45.95358       36.15816       78.73981
H         47.97764       37.18109       78.50208
H         48.88705       37.17166       76.98347
N         44.67179       37.56356       74.26772
C         45.34285       38.03655       73.06072
C         46.31656       39.14075       73.44553
O         45.88580       40.10687       74.06142
C         44.29577       38.52329       72.01828
C         44.98008       38.93469       70.70144
C         43.27088       37.41502       71.70832
H         44.16953       38.25618       74.84499
H         45.89618       37.20981       72.57950
H         43.74328       39.39840       72.42574
H         45.52211       38.07073       70.25817
H         44.22377       39.28396       69.96610
H         45.70113       39.76113       70.86589
H         43.77677       36.51115       71.30542
H         42.70763       37.12897       72.62104
H         42.53046       37.76931       70.95944
N         47.63580       39.08161       73.09008
C         48.60490       40.12591       73.43572
C         48.99065       40.92442       72.20103
O         48.44474       40.66588       71.14424
C         49.83315       39.55469       74.19232
C         50.89676       38.90076       73.33372
N         50.68301       37.74015       72.67913
O         51.99428       39.43325       73.25166
H         47.94316       38.29397       72.50681
H         48.13107       40.84633       74.13754
H         49.50464       38.87114       75.00443
H         50.32513       40.41766       74.69226
H         49.79135       37.23994       72.75419
H         51.43666       37.32350       72.11200
N         49.90281       41.93466       72.26320
C         50.23761       42.79009       71.12429
C         50.76560       42.00482       69.93238
O         50.23166       42.16762       68.84440
C         51.26587       43.86077       71.55101
C         51.56998       44.84145       70.43969
C         50.54619       45.63219       69.88767
C         52.87956       44.97951       69.94907
C         50.82600       46.53812       68.86162
C         53.15789       45.89062       68.92478
C         52.13031       46.67265       68.37722
O         52.38333       47.55558       67.39019
H         50.35408       42.12809       73.16983
H         49.30953       43.31725       70.81246
H         52.19697       43.35544       71.89154
H         50.85966       44.43346       72.41263
H         49.52949       45.55003       70.24932
H         53.68650       44.38461       70.35844
H         50.02680       47.13796       68.44454
H         54.17193       45.98823       68.55815
H         53.27210       47.68435       67.02963
N         51.81170       41.14184       70.06274
C         52.38991       40.39364       68.94480
C         51.31969       39.63445       68.17389
O         51.26774       39.76279       66.95845
C         53.51337       39.46772       69.46460
C         54.23864       38.71872       68.33580
C         55.43603       37.98066       68.86626
O         56.55254       38.24506       68.44809
O         55.28737       37.02721       69.80557
H         52.20734       41.00658       71.00571
H         52.86463       41.11598       68.24279
H         53.10813       38.73770       70.20031
H         54.25873       40.11091       69.98452
H         54.57834       39.44836       67.56809
H         53.54832       37.99383       67.85381
N         50.38842       38.88704       68.82459
C         49.28773       38.19838       68.14517
C         48.46020       39.17797       67.32782
O         48.33982       38.98436       66.12619
C         48.40772       37.45572       69.17651
C         49.21488       36.31619       69.81283
C         48.52910       35.57591       70.91264
O         49.21692       34.58410       71.49539
O         47.40019       35.84678       71.28146
H         50.44931       38.84868       69.85339
H         49.70311       37.43951       67.44308
H         47.51562       37.01500       68.67877
H         48.06189       38.17120       69.95413
H         50.15634       36.70329       70.24012
H         49.48120       35.58611       69.02814
N         47.89202       40.26889       67.90751
C         47.13444       41.27032       67.18689
H         46.11855       41.34861       67.62645
H         47.64319       42.25292       67.28818
H         47.03944       41.03500       66.10685
H         48.02004       40.41817       68.90919
Ca        48.68790       33.34066       73.27655
O         50.34952       35.38012       74.70327
H         50.61719       36.01241       75.41596
H         51.20290       35.08727       74.29511

Ca 1.0



