%chk=holoCaM.loop3.water2.frame202.chk
%nprocshared=20
%mem=10GB
%nosave
#b3lyp/svp scf=(tight,noincore,xqc) Test 
#IOP(5/87=12) Density=Current Pop=(MK,readradii) iop(6/33=2) iop(6/42=6)

holoCaM.loop3.water2.frame202 

   0  1 
C         18.92782       39.51614       84.99252
C         20.11168       38.86603       84.34878
O         19.94731       38.21666       83.32556
H         18.12458       38.76349       85.13915
H         19.19318       39.93952       85.98446
H         18.55985       40.33029       84.33661
N         21.34858       38.99587       84.89774
C         22.51319       38.32476       84.35477
C         22.62235       36.96288       85.00458
O         22.62714       36.87874       86.22561
C         23.77398       39.17773       84.57201
C         24.99972       38.54934       83.96932
O         24.93902       37.52518       83.31022
O         26.18590       39.13292       84.14765
H         21.46009       39.55038       85.76153
H         22.40731       38.20929       83.25562
H         23.93495       39.33789       85.65747
H         23.64151       40.17468       84.09691
N         22.67463       35.84038       84.23452
C         22.69995       34.50001       84.80660
C         23.96163       34.19743       85.62854
O         23.95093       33.21010       86.35020
C         22.39760       33.44241       83.72375
C         23.47488       33.28901       82.63265
C         23.06233       32.29284       81.52836
C         22.71417       30.89558       82.06450
N         22.48127       29.94929       80.97420
H         22.62433       35.95249       83.21146
H         21.84146       34.45325       85.51347
H         21.43645       33.72307       83.23588
H         22.25428       32.47128       84.23758
H         24.42356       32.95052       83.09845
H         23.66837       34.26468       82.14004
H         23.90828       32.20399       80.81469
H         22.18077       32.68872       80.97651
H         21.79006       30.96113       82.67782
H         23.54376       30.51890       82.70155
H         23.38004       29.75435       80.47625
H         22.11823       29.05448       81.37594
H         21.77675       30.32733       80.29998
N         25.06583       35.00454       85.59279
C         26.22424       34.87130       86.48031
C         26.49479       36.16945       87.26726
O         27.40070       36.17481       88.08899
C         27.44609       34.37897       85.68200
C         27.85009       35.27943       84.56207
O         27.78356       34.88234       83.41255
O         28.34746       36.49757       84.81729
H         25.09391       35.76114       84.90461
H         26.03060       34.08151       87.23997
H         27.18444       33.38703       85.25323
H         28.32206       34.23821       86.35101
N         25.70884       37.28051       87.12009
C         25.78998       38.47539       87.94673
C         26.93604       39.41623       87.64331
O         27.03549       40.41285       88.34633
H         24.93047       37.25822       86.46451
H         25.79598       38.17473       89.01659
H         24.86810       39.07589       87.78846
N         27.83396       39.20488       86.63670
C         28.96330       40.10256       86.41670
C         28.57307       41.48371       85.88363
O         29.42762       42.35857       85.88072
C         30.09031       39.42158       85.59184
C         30.01492       39.19579       84.04800
N         31.05409       39.98139       83.37806
O         28.79175       39.46458       83.42094
H         27.75916       38.35346       86.07809
H         29.41875       40.24804       87.42546
H         30.29085       38.42926       86.04739
H         31.01503       40.00674       85.79793
H         31.99513       39.68070       83.72106
H         31.02260       39.79965       82.34952
N         27.31989       41.75069       85.40228
C         26.89547       43.04266       84.87504
C         26.65018       43.03652       83.36603
O         26.26643       44.07283       82.84514
H         26.61558       41.00906       85.39683
H         27.65860       43.82315       85.07793
H         25.96440       43.34046       85.40444
N         26.91282       41.94297       82.59296
C         26.83531       41.90251       81.13241
C         25.98782       40.73300       80.65337
O         26.13449       39.64226       81.18230
C         28.24656       41.74302       80.53447
C         29.08282       42.98927       80.68829
C         29.73893       43.29254       81.89364
C         29.21496       43.86439       79.59673
C         30.51726       44.45298       81.99711
C         29.97883       45.02604       79.70663
C         30.63624       45.32421       80.90681
O         31.38208       46.44171       81.02106
H         27.25553       41.10183       83.05324
H         26.41624       42.84203       80.71108
H         28.11010       41.56176       79.44470
H         28.78959       40.86243       80.93823
H         29.66151       42.62825       82.74544
H         28.71362       43.65418       78.65994
H         31.02939       44.67657       82.92453
H         30.05823       45.69171       78.85634
H         31.48240       47.06836       80.28950
N         25.11868       40.87784       79.60492
C         24.29745       39.78166       79.09067
C         24.57668       39.57458       77.59979
O         24.14810       40.39282       76.79770
C         22.79358       40.10578       79.35173
C         22.57469       40.42077       80.85598
C         21.88149       38.96160       78.87351
C         21.14126       40.80511       81.21882
H         25.02235       41.80306       79.16036
H         24.54238       38.83879       79.63020
H         22.52759       41.01965       78.77399
H         23.20791       41.28931       81.13767
H         22.88824       39.55395       81.47095
H         22.07354       38.03266       79.44973
H         20.81359       39.24160       78.98147
H         22.03890       38.75845       77.79537
H         21.10314       41.09853       82.28942
H         20.80376       41.66481       80.60199
H         20.45001       39.95017       81.08053
N         25.30692       38.50786       77.15586
C         25.54710       38.24289       75.73247
C         24.29118       37.68245       75.07837
O         23.30385       37.49464       75.76587
C         26.72658       37.25720       75.53616
O         26.41054       35.95556       75.93938
H         25.73159       37.89352       77.85817
H         25.85728       39.19039       75.24267
H         27.64135       37.61874       76.05815
H         26.99449       37.20338       74.46050
H         26.43043       35.95270       76.92410
N         24.27007       37.34300       73.75869
C         23.14295       36.65412       73.12759
C         22.89822       35.30492       73.78965
O         21.75650       34.99466       74.09916
C         23.41047       36.46179       71.63129
H         25.10598       37.54270       73.18903
H         22.21995       37.27119       73.20893
H         23.50412       37.45594       71.14293
H         24.34451       35.88667       71.45994
H         22.56180       35.92455       71.15459
N         23.94072       34.47624       74.08361
C         23.79151       33.19581       74.77331
C         23.07797       33.36158       76.10891
O         22.08572       32.68840       76.34943
C         25.17733       32.57404       75.02078
H         24.89153       34.79126       73.83460
H         23.21516       32.49517       74.12855
H         25.71796       32.43526       74.06077
H         25.79601       33.22767       75.67357
H         25.07717       31.58372       75.51421
N         23.55662       34.24247       77.02912
C         23.00345       34.43231       78.36901
C         21.57438       34.96637       78.34100
O         20.83301       34.69413       79.27490
C         23.90389       35.40650       79.17917
C         25.32169       34.83982       79.43303
C         26.25933       35.87816       80.01401
O         26.55118       35.91056       81.33228
O         27.02211       36.44833       79.25705
H         24.37734       34.79502       76.75802
H         22.99687       33.45120       78.88708
H         23.44353       35.63091       80.16501
H         23.96942       36.35762       78.60718
H         25.76328       34.47592       78.48300
H         25.27728       33.95160       80.09259
N         21.13908       35.77600       77.33555
C         19.82151       36.37827       77.27952
H         19.18163       36.08800       78.13792
H         19.92344       37.48425       77.27905
H         19.31862       36.07820       76.33692
H         21.77378       35.99363       76.56621
Ca        27.68018       37.64823       82.40132
O         28.60559       38.59937       79.86418
H         27.79353       38.77270       79.32536
H         29.35474       38.76926       79.24335
O         30.17330       36.73442       81.95072
H         31.07613       36.86372       81.57148
H         30.03938       35.75446       81.98483

Ca 1.0



