%chk=holoCaM.loop4.water3.frame298.chk
%nprocshared=20
%mem=10GB
%nosave
#b3lyp/svp scf=(tight,noincore,xqc) Test 
#IOP(5/87=12) Density=Current Pop=(MK,readradii) iop(6/33=2) iop(6/42=6)

holoCaM.loop4.water3.frame298 

   -3  1 
C         28.47580       24.68431       79.53940
C         28.74898       25.68424       80.62163
O         28.70236       26.87535       80.35480
H         28.22149       25.19579       78.58601
H         29.37273       24.05127       79.38200
H         27.61901       24.04184       79.83446
N         29.00326       25.26024       81.89077
C         29.22091       26.16547       83.01096
C         30.47060       25.75435       83.77311
O         30.54676       24.61496       84.21338
C         27.99224       26.10722       83.93545
C         28.02804       27.11964       85.04703
O         27.04437       27.12708       85.96446
O         28.91532       27.95360       85.11311
H         28.97832       24.24616       82.08137
H         29.31401       27.21442       82.64887
H         27.90702       25.08817       84.36893
H         27.07718       26.31233       83.33874
N         31.48173       26.64200       83.98408
C         32.71019       26.31227       84.69914
C         32.80529       27.18492       85.94996
O         32.81630       26.65249       87.05099
C         33.91910       26.47020       83.71816
C         33.74947       25.47228       82.53556
C         35.26588       26.26151       84.43517
C         34.81721       25.57797       81.44529
H         31.38358       27.59714       83.61245
H         32.69822       25.25285       85.04292
H         33.91698       27.50426       83.30741
H         32.77539       25.66115       82.03573
H         33.74049       24.43001       82.92343
H         35.34147       25.23352       84.84629
H         36.11352       26.43856       83.74138
H         35.38703       26.99374       85.26017
H         34.57580       24.86001       80.63188
H         34.83532       26.60228       81.01758
H         35.82189       25.31331       81.83110
N         32.91090       28.53634       85.84317
C         33.09888       29.44502       86.98178
C         31.87934       29.63462       87.91120
O         32.05367       30.25367       88.95211
C         33.56571       30.82540       86.46481
C         32.56978       31.45959       85.52907
O         31.48032       30.76915       85.13814
O         32.75390       32.59250       85.11565
H         32.96535       28.91517       84.88756
H         33.92623       29.03357       87.60114
H         34.53068       30.71433       85.92454
H         33.73529       31.49730       87.33384
N         30.63367       29.16257       87.62052
C         29.48994       29.27078       88.52831
C         29.04463       30.69096       88.86664
O         29.06576       31.03260       90.04103
H         30.49636       28.65541       86.74084
H         29.74380       28.73839       89.47238
H         28.61781       28.74672       88.08128
N         28.57734       31.54999       87.90874
C         28.04955       32.89705       88.21420
C         26.59806       33.11897       87.76687
O         25.97336       34.03296       88.28797
C         28.97490       34.00406       87.65549
C         29.17892       33.95498       86.16689
O         28.52287       33.05319       85.42412
O         30.01954       34.66869       85.64581
H         28.60682       31.21631       86.93693
H         28.04200       33.03884       89.31720
H         29.97149       33.86578       88.12730
H         28.59575       35.01035       87.93672
N         26.00678       32.36651       86.79473
C         24.62232       32.51540       86.35738
C         24.49034       32.95052       84.90246
O         23.38787       32.89026       84.38050
H         26.55858       31.64384       86.32696
H         24.05421       33.23445       86.98567
H         24.14027       31.52043       86.47276
N         25.55434       33.43705       84.20071
C         25.51639       33.87531       82.80664
C         26.52385       33.08353       81.97489
O         27.18644       32.20647       82.50718
C         25.81302       35.38922       82.74865
C         24.68407       36.20390       83.40475
C         24.89777       37.69608       83.31898
N         23.94796       38.53590       83.79064
O         25.91479       38.15619       82.81947
H         26.44403       33.54850       84.68365
H         24.51602       33.69560       82.35610
H         25.87807       35.72105       81.69190
H         26.78783       35.60304       83.24165
H         24.57832       35.92220       84.47419
H         23.73317       35.96700       82.87902
H         23.07930       38.16642       84.20457
H         24.07475       39.55716       83.73232
N         26.66477       33.33619       80.63649
C         27.53141       32.56627       79.74608
C         28.62128       33.45889       79.17017
O         28.30889       34.39877       78.45294
C         26.66521       31.95583       78.60177
C         27.50915       31.23466       77.53915
C         25.62188       30.97827       79.15728
H         26.10532       34.08855       80.21111
H         28.02086       31.73521       80.29798
H         26.12187       32.78180       78.08952
H         26.85414       30.81932       76.74446
H         28.18992       31.94826       77.03991
H         28.10083       30.41143       77.99070
H         24.98056       30.59791       78.33380
H         26.12219       30.11370       79.63546
H         24.96372       31.47528       79.89963
N         29.93854       33.19540       79.42674
C         31.03244       33.93438       78.79537
C         31.16483       33.50558       77.33909
O         30.55150       32.53192       76.94642
C         32.34857       33.66054       79.57230
C         33.56426       34.42134       79.11005
N         33.57708       35.77374       79.10553
O         34.56573       33.80848       78.77407
H         30.17005       32.43161       80.07867
H         30.80201       35.01977       78.86155
H         32.56397       32.56854       79.55403
H         32.20024       33.96588       80.62036
H         32.75092       36.31273       79.40041
H         34.42197       36.28391       78.81179
N         31.95568       34.19287       76.47705
C         32.20879       33.78503       75.09180
C         32.91465       32.43610       75.01999
O         32.51911       31.60799       74.21121
C         32.95473       34.90687       74.31968
C         34.15119       35.49590       75.03954
C         35.36049       34.79704       75.18116
C         34.03651       36.78056       75.60426
C         36.42007       35.35993       75.90215
C         35.09181       37.33890       76.32269
C         36.28627       36.62675       76.48229
O         37.30581       37.14845       77.19295
H         32.39028       35.05253       76.83199
H         31.24059       33.67016       74.55195
H         32.20032       35.71683       74.20666
H         33.22133       34.58923       73.28831
H         35.48700       33.81793       74.74120
H         33.11576       37.34411       75.51256
H         37.34352       34.80719       76.01716
H         34.97175       38.31946       76.76600
H         37.23901       38.01257       77.62477
N         33.93741       32.13051       75.86416
C         34.65611       30.85834       75.85427
C         33.69190       29.70509       76.08449
O         33.67041       28.76672       75.30083
C         35.75292       30.88289       76.94964
C         36.71262       29.68313       76.89705
C         37.51133       29.67209       75.62239
O         37.44871       28.71831       74.86387
O         38.30504       30.71674       75.31425
H         34.21005       32.83848       76.55667
H         35.15468       30.74297       74.86685
H         35.27388       30.92383       77.95276
H         36.36324       31.80644       76.83702
H         36.14550       28.73433       77.01283
H         37.42764       29.76093       77.74428
N         32.82661       29.75494       77.13318
C         31.82397       28.73541       77.43577
C         30.90012       28.50212       76.24860
O         30.70516       27.35549       75.87056
C         31.00022       29.15909       78.67483
C         31.87175       29.21915       79.94870
C         31.12254       29.67196       81.17039
O         31.78176       29.78775       82.33725
O         29.93752       29.95635       81.12155
H         32.86361       30.59731       77.72590
H         32.32256       27.77044       77.68030
H         30.19024       28.41770       78.84472
H         30.53252       30.15075       78.48662
H         32.71260       29.92719       79.81105
H         32.29395       28.21046       80.14867
N         30.32310       29.54761       75.59651
C         29.43216       29.41135       74.46296
H         28.47570       29.92843       74.68788
H         29.89296       29.89094       73.57324
H         29.21149       28.35127       74.22154
H         30.54916       30.49757       75.89527
Ca        29.73774       31.71670       84.17163
O         27.16671       29.31579       82.05574
H         27.53706       29.01764       81.19014
H         26.18569       29.30241       81.92400
O         30.75989       33.53755       82.45933
H         31.58279       33.03443       82.68842
H         30.71795       34.26546       83.12597
O         26.46513       29.84890       84.65346
H         25.57741       30.16365       84.35022
H         26.31136       29.52963       85.57688

Ca 1.0



