%chk=holoCaM-CaMKII.loop1.water2.frame201.chk
%nprocshared=20
%mem=10GB
%nosave
#b3lyp/svp scf=(tight,noincore,xqc) Test 
#IOP(5/87=12) Density=Current Pop=(MK,readradii) iop(6/33=2) iop(6/42=6)

holoCaM-CaMKII.loop1.water2.frame201 

   0  1 
C         10.73906       65.14448       22.20657
C         10.41551       66.26455       23.14211
O         11.32436       66.81719       23.74536
H         11.83318       64.95132       22.19501
H         10.21265       64.22414       22.53300
H         10.41140       65.41703       21.18165
N          9.12421       66.66669       23.30583
C          8.76573       67.77532       24.17752
C          9.13427       67.42185       25.60553
O          8.58584       66.46329       26.13456
C          7.26256       68.07708       24.06388
C          6.88800       69.39604       24.66032
O          7.82407       70.25441       25.11097
O          5.72331       69.75187       24.61734
H          8.38667       66.18447       22.76813
H          9.33084       68.66532       23.81763
H          6.66787       67.25584       24.52053
H          6.98542       68.14606       22.98909
N         10.11540       68.10503       26.26019
C         10.72756       67.59624       27.48143
C         10.11544       68.17510       28.74343
O         10.35460       67.62220       29.80787
C         12.25206       67.82626       27.40028
C         13.11205       66.91640       28.29443
C         12.89856       65.40294       28.05065
C         12.95874       64.99967       26.56129
N         12.78492       63.55907       26.39385
H         10.60394       68.84200       25.74025
H         10.53311       66.50627       27.49509
H         12.47834       68.89868       27.59116
H         12.58290       67.63501       26.35768
H         12.93641       67.13927       29.36800
H         14.17307       67.16157       28.06933
H         11.91409       65.09498       28.46012
H         13.67596       64.85068       28.62078
H         13.92944       65.31263       26.11850
H         12.14072       65.50140       26.00169
H         13.57919       63.04847       26.84119
H         11.87830       63.25467       26.81809
H         12.76608       63.33665       25.37172
N          9.30670       69.27434       28.70403
C          8.59829       69.79662       29.87120
C          7.08240       69.75635       29.67317
O          6.36791       70.08035       30.61174
C          9.11545       71.20243       30.25116
C          8.93403       72.27896       29.21537
O          9.36045       73.52652       29.48890
O          8.41204       72.04730       28.13770
H          9.17687       69.75547       27.80413
H          8.80229       69.15192       30.75436
H         10.20163       71.12496       30.47589
H          8.60230       71.53149       31.18111
N          6.51555       69.31545       28.50979
C          5.08971       69.10241       28.34161
C          4.25459       70.35743       28.44294
O          3.37243       70.40325       29.28787
H          7.10656       69.03394       27.71646
H          4.75153       68.35881       29.09606
H          4.90994       68.66042       27.33670
N          4.42770       71.38576       27.56577
C          3.53735       72.54907       27.50043
C          2.79016       72.61736       26.16458
O          1.97349       73.51725       26.02123
C          4.29246       73.86381       27.82729
C          5.57291       74.00383       27.06940
O          5.59031       73.90390       25.73658
O          6.62999       74.06081       27.67466
H          5.19411       71.31353       26.87947
H          2.73302       72.46719       28.26310
H          4.54666       73.85819       28.91006
H          3.63586       74.73990       27.64105
N          2.96000       71.69288       25.16878
C          2.16610       71.67016       23.94596
C          2.97912       71.86361       22.68078
O          2.38907       71.78293       21.61351
H          3.63955       70.93170       25.28290
H          1.37911       72.45505       23.95429
H          1.65167       70.68670       23.89131
N          4.30685       72.18053       22.70641
C          5.07191       72.50094       21.49861
C          6.48481       71.92883       21.53658
O          6.91807       71.39362       22.54019
C          5.13531       74.04976       21.30592
C          3.83562       74.59094       20.71277
O          5.38480       74.73141       22.51053
H          4.76416       72.31412       23.61773
H          4.59793       72.03958       20.60390
H          5.92570       74.31501       20.57133
H          5.97027       74.16709       23.07136
H          2.97113       74.39880       21.37886
H          3.92820       75.68781       20.56015
H          3.65213       74.12244       19.72147
N          7.25214       72.00759       20.41256
C          8.62816       71.53526       20.29420
C          9.48576       72.69428       19.81365
O          9.13289       73.32513       18.82707
C          8.68459       70.33447       19.30255
C          7.92789       69.12826       19.92408
C         10.14546       69.95100       18.97476
C          7.81412       67.91413       19.00166
H          6.82433       72.41266       19.56603
H          9.02626       71.17029       21.26658
H          8.19117       70.63369       18.35079
H          6.89150       69.43475       20.17879
H          8.43449       68.81482       20.86460
H         10.19075       69.12877       18.23429
H         10.68010       70.80140       18.50354
H         10.69229       69.64905       19.89315
H          7.28359       68.19225       18.06704
H          8.80748       67.48988       18.75451
H          7.23562       67.11858       19.51725
N         10.67275       72.97532       20.42514
C         11.57566       74.02620       19.97079
C         12.79727       73.41032       19.31548
O         12.95592       72.19734       19.32196
C         11.99671       74.94219       21.15410
C         10.79714       75.64906       21.79506
O         12.73466       74.21900       22.11084
H         10.98724       72.37444       21.19581
H         11.08087       74.65082       19.19608
H         12.66274       75.74783       20.77997
H         12.13124       73.92054       22.83885
H         10.08517       74.89521       22.18466
H         11.14651       76.28448       22.63835
H         10.28052       76.28869       21.05173
N         13.71260       74.21981       18.71700
C         14.96293       73.73327       18.13981
C         15.80289       73.07912       19.22331
O         16.41092       72.04756       18.97844
C         15.75635       74.88835       17.48096
C         14.98909       75.50127       16.30013
O         16.04414       75.88325       18.43062
H         13.52205       75.23229       18.70744
H         14.74805       72.98579       17.34251
H         16.70620       74.45527       17.08692
H         16.80823       76.40822       18.07591
H         14.03291       75.96003       16.62655
H         15.60378       76.29302       15.82311
H         14.76850       74.72260       15.53950
N         15.83243       73.62636       20.46919
C         16.55132       73.07279       21.60948
C         16.07805       71.65878       21.92433
O         16.90163       70.75661       21.98301
C         16.32810       74.01423       22.81539
C         17.17039       73.68374       24.05112
C         16.89274       74.72648       25.14521
C         17.78492       74.52432       26.37312
N         17.50055       75.53891       27.38893
H         15.29165       74.49257       20.61873
H         17.63941       73.06212       21.37549
H         15.25057       74.02382       23.09021
H         16.60815       75.04290       22.49470
H         18.24553       73.71902       23.76971
H         16.92773       72.66700       24.42928
H         15.82363       74.66477       25.44763
H         17.08683       75.74424       24.73930
H         18.85193       74.60379       26.06685
H         17.61301       73.51275       26.80180
H         17.66021       76.49656       26.99847
H         16.50978       75.45439       27.71369
H         18.13850       75.39787       28.20483
N         14.75522       71.39988       22.14029
C         14.23284       70.08115       22.50859
C         14.44858       69.03967       21.41389
O         14.27639       67.86109       21.69445
C         12.72455       70.17457       22.86348
C         12.48670       71.09892       24.07914
C         11.03332       71.37527       24.35225
O         10.32563       71.87562       23.49510
O         10.52715       71.17225       25.58081
H         14.10169       72.18684       22.05767
H         14.78438       69.73971       23.41294
H         12.31426       69.16950       23.09858
H         12.18757       70.56038       21.97075
H         12.96022       72.08120       23.91200
H         12.95972       70.65008       24.97902
N         14.82248       69.38527       20.14973
C         15.10080       68.40498       19.12301
H         15.96378       67.77601       19.43002
H         14.21239       67.76346       18.94787
H         15.36447       68.91891       18.17307
H         14.90935       70.37374       19.89295
Ca         7.12175       72.38248       25.17690
O          8.13224       74.99467       23.85481
H          8.95013       75.47494       24.12775
H          7.39746       75.55808       24.20330
O         10.31095       74.41644       26.12024
H         10.16279       75.38696       26.24946
H         10.32949       74.04628       27.03710

Ca 1.0



