%chk=holoCaM.loop4.water3.frame21.chk
%nprocshared=20
%mem=10GB
%nosave
#b3lyp/svp scf=(tight,noincore,xqc) Test 
#IOP(5/87=12) Density=Current Pop=(MK,readradii) iop(6/33=2) iop(6/42=6)

holoCaM.loop4.water3.frame21 

   -3  1 
C         86.03428       26.06436       37.79629
C         86.24362       26.49878       36.37543
O         85.26820       26.75832       35.68554
H         84.95128       26.03850       38.04626
H         86.47248       25.06007       37.96118
H         86.52607       26.79467       38.47575
N         87.50875       26.66197       35.89296
C         87.79573       27.25813       34.59489
C         88.81228       26.46345       33.78447
O         89.90983       26.23363       34.27468
C         88.34878       28.66783       34.85042
C         88.68178       29.34691       33.56325
O         87.82381       29.46599       32.70677
O         89.93428       29.78331       33.33101
H         88.30164       26.47142       36.52582
H         86.86214       27.37544       33.99986
H         89.25861       28.61917       35.48834
H         87.58078       29.26739       35.38441
N         88.53902       26.10267       32.49233
C         89.52575       25.49218       31.59462
C         89.77721       26.32831       30.31768
O         90.61755       25.91510       29.53232
C         89.10795       24.02750       31.23669
C         87.80316       23.97715       30.40076
C         88.99197       23.18983       32.52586
C         87.37770       22.57141       29.96933
H         87.59563       26.29202       32.12518
H         90.50797       25.42507       32.11175
H         89.92231       23.58179       30.62323
H         87.93633       24.57916       29.47685
H         86.98038       24.41281       30.98352
H         88.81363       22.11986       32.29794
H         89.93956       23.24214       33.10221
H         88.16234       23.55822       33.16692
H         88.17829       22.08890       29.37100
H         87.13059       21.93587       30.84397
H         86.45980       22.64137       29.34703
N         89.06784       27.46558       30.01639
C         89.17046       28.18373       28.72773
C         89.37579       29.70221       28.82703
O         89.53114       30.32774       27.78599
C         87.88764       27.91916       27.90435
C         86.62008       28.38869       28.58513
O         86.68086       29.03161       29.77219
O         85.53940       28.12293       28.08915
H         88.35698       27.76764       30.68582
H         90.02670       27.78006       28.14434
H         87.80974       26.82039       27.75194
H         87.96674       28.39234       26.90065
N         89.36203       30.37207       30.01009
C         89.54211       31.81401       30.13414
C         88.42856       32.69866       29.57085
O         88.59143       33.90716       29.66825
H         89.27457       29.83527       30.87420
H         90.50460       32.09314       29.65331
H         89.62346       32.06333       31.21450
N         87.29025       32.22331       28.97636
C         86.27365       33.11838       28.40632
C         85.59318       34.03032       29.43204
O         85.00300       35.01982       29.02081
C         85.21124       32.34858       27.58553
C         84.39045       31.35421       28.36580
O         84.62719       31.11498       29.66730
O         83.50307       30.73787       27.79945
H         87.16667       31.21211       28.87233
H         86.80730       33.78018       27.68745
H         85.71731       31.79832       26.76372
H         84.51719       33.08635       27.12640
N         85.61391       33.75578       30.76674
C         85.06911       34.63450       31.79491
C         83.90315       34.03871       32.56958
O         83.53097       34.63176       33.57238
H         86.05891       32.88763       31.07776
H         84.72853       35.60732       31.37623
H         85.89502       34.85847       32.50330
N         83.21321       32.94463       32.12781
C         81.99381       32.44299       32.76428
C         82.00402       30.92642       32.89949
O         82.27975       30.24061       31.92495
C         80.77436       32.81945       31.90811
C         80.59195       34.33987       31.79065
C         79.34611       34.66800       31.01313
N         79.21485       34.28204       29.72262
O         78.44485       35.29163       31.55349
H         83.48202       32.52544       31.23142
H         81.83348       32.90879       33.76291
H         79.86403       32.40144       32.39545
H         80.87451       32.36510       30.89878
H         81.46477       34.79977       31.28066
H         80.51305       34.77485       32.81250
H         79.96681       33.76255       29.24707
H         78.35845       34.50522       29.19507
N         81.60794       30.33495       34.06365
C         81.47013       28.88464       34.22719
C         80.40533       28.34594       33.26944
O         79.29528       28.85950       33.25697
C         81.09793       28.50298       35.69313
C         81.01158       26.97073       35.85170
C         82.13361       29.02896       36.70455
H         81.35350       30.95057       34.84942
H         82.45015       28.40507       34.01558
H         80.10753       28.94168       35.94846
H         81.98836       26.49784       35.60767
H         80.74045       26.70282       36.89471
H         80.23489       26.53825       35.18862
H         82.19772       30.13458       36.69711
H         81.84196       28.73160       37.73469
H         83.14080       28.61471       36.48737
N         80.67777       27.26842       32.47890
C         79.74267       26.66639       31.52693
C         79.35495       25.25875       31.97964
O         79.82077       24.81193       33.01698
C         80.45679       26.66531       30.15299
C         79.68417       26.13873       28.97189
N         78.53141       26.72476       28.57955
O         80.12299       25.18948       28.33967
H         81.60774       26.83610       32.56056
H         78.80845       27.26475       31.46444
H         81.39831       26.07690       30.25202
H         80.71417       27.71512       29.91283
H         78.15223       27.53504       29.08865
H         78.02181       26.36844       27.75811
N         78.45566       24.52195       31.26440
C         78.08104       23.14159       31.57919
C         79.23231       22.16235       31.37150
O         79.29124       21.18191       32.09985
C         76.79450       22.72738       30.82235
C         76.85171       22.93990       29.32440
C         77.62746       22.11956       28.49020
C         76.11198       23.99114       28.75112
C         77.67110       22.35778       27.11078
C         76.16536       24.23252       27.37827
C         76.94600       23.42113       26.55285
O         76.99130       23.67354       25.22943
H         77.99282       24.97998       30.47166
H         77.80325       23.09502       32.65735
H         75.99074       23.37724       31.23416
H         76.50066       21.68077       31.05636
H         78.19340       21.29446       28.90165
H         75.50692       24.64157       29.37088
H         78.27181       21.71895       26.47615
H         75.60323       25.05742       26.95860
H         77.52525       23.14317       24.62154
N         80.19826       22.36164       30.42354
C         81.37689       21.49502       30.30284
C         82.34238       21.67271       31.48013
O         83.32975       20.95359       31.54415
C         82.14257       21.77234       28.98729
C         81.30527       21.41732       27.75033
C         82.10012       21.57961       26.48719
O         82.53819       22.67349       26.16892
O         82.32596       20.51492       25.69317
H         80.09741       23.15761       29.78097
H         81.04162       20.43443       30.27806
H         83.05373       21.13378       28.96282
H         82.46266       22.83816       28.94631
H         80.40895       22.06403       27.69334
H         80.97668       20.35767       27.82845
N         82.13265       22.62520       32.43095
C         83.00994       22.90948       33.55816
C         82.30093       22.65442       34.88193
O         82.91464       22.86392       35.91921
C         83.46980       24.38210       33.44301
C         84.25136       24.56240       32.13593
C         84.64369       25.96250       31.78367
O         84.28107       27.04609       32.49506
O         85.27761       26.13310       30.75515
H         81.32145       23.23263       32.34245
H         83.90637       22.25134       33.54159
H         84.12046       24.66398       34.29914
H         82.57665       25.03744       33.45505
H         83.64773       24.20693       31.27525
H         85.16454       23.93727       32.20958
N         81.02570       22.16963       34.93593
C         80.35706       21.87211       36.18147
H         79.33862       21.47666       35.97382
H         80.92624       21.09787       36.73802
H         80.26523       22.79153       36.79530
H         80.49998       21.98032       34.07631
Ca        85.21106       28.82053       31.46711
O         83.15264       28.10295       29.80189
H         82.71922       28.95411       29.54630
H         83.22690       27.59220       28.95869
O         84.78248       29.98803       34.42452
H         84.80893       29.00104       34.37374
H         85.22955       30.20413       35.28039
O         86.58216       31.73617       33.11470
H         87.45507       32.04068       32.75802
H         86.28100       32.46687       33.70668

Ca 1.0



