%chk=holoCaM.loop1.water2.frame98.chk
%nprocshared=20
%mem=10GB
%nosave
#b3lyp/svp scf=(tight,noincore,xqc) Test 
#IOP(5/87=12) Density=Current Pop=(MK,readradii) iop(6/33=2) iop(6/42=6)

holoCaM.loop1.water2.frame98 

   0  1 
C         72.36739       33.25239       25.20077
C         71.11001       34.04728       25.06386
O         70.15428       33.77835       25.77916
H         73.19321       33.93137       25.50231
H         72.24826       32.47054       25.98090
H         72.61468       32.77242       24.23287
N         71.05132       35.08376       24.18266
C         69.88832       35.94805       24.10766
C         68.67253       35.19618       23.58955
O         68.64465       34.80149       22.43185
C         70.18923       37.19122       23.26585
C         69.05118       38.13939       23.37025
O         68.50750       38.56716       22.37029
O         68.61626       38.50430       24.58558
H         71.88650       35.30432       23.61740
H         69.70009       36.30418       25.14708
H         70.39797       36.93182       22.20395
H         71.08340       37.69953       23.68713
N         67.65097       34.91746       24.44363
C         66.50868       34.08926       24.09441
C         65.54128       34.80276       23.13826
O         65.37442       34.33172       22.02222
C         65.79455       33.63228       25.39894
C         64.87205       32.40960       25.23519
C         65.62106       31.07784       24.98288
C         66.48190       30.62655       26.18526
N         67.15080       29.35495       25.91173
H         67.77710       35.18810       25.42564
H         66.92872       33.18439       23.60866
H         65.21877       34.48117       25.82017
H         66.54593       33.38121       26.17123
H         64.15594       32.60859       24.41012
H         64.28294       32.28375       26.17002
H         66.24749       31.14540       24.07131
H         64.85830       30.28992       24.80362
H         65.82734       30.50952       27.07821
H         67.26355       31.37530       26.42651
H         67.69050       29.06353       26.75946
H         66.44924       28.61345       25.68650
H         67.81760       29.46891       25.11394
N         64.82151       35.90527       23.53015
C         63.76018       36.50553       22.70829
C         64.25756       37.38074       21.55553
O         63.42919       37.84316       20.78231
C         62.76893       37.31806       23.58046
C         63.32132       38.58153       24.19152
O         64.48522       38.91166       24.03368
O         62.50116       39.37661       24.90331
H         64.93730       36.24353       24.49484
H         63.15883       35.66905       22.28535
H         62.37928       36.66757       24.39361
H         61.90402       37.61044       22.94537
N         65.57604       37.66399       21.37638
C         66.07865       38.47180       20.27542
C         65.75998       39.95410       20.37292
O         65.22497       40.49618       19.41608
H         66.27053       37.24973       22.01237
H         65.71981       38.05144       19.30964
H         67.18389       38.39901       20.26338
N         66.13720       40.68945       21.46356
C         66.08560       42.15465       21.51175
C         67.47419       42.76988       21.77630
O         67.56994       43.98756       21.83337
C         64.96708       42.64102       22.46742
C         65.16409       42.45770       23.94434
O         64.25099       42.72903       24.70637
O         66.36664       42.17511       24.45383
H         66.51691       40.18929       22.27505
H         65.77173       42.54142       20.51725
H         64.03410       42.11689       22.16821
H         64.80087       43.72980       22.31041
N         68.60024       41.99529       21.88764
C         69.96073       42.52018       21.91238
C         70.57822       42.66917       23.29091
O         71.76558       42.96158       23.33858
H         68.52547       40.98122       21.75168
H         70.03539       43.46938       21.33938
H         70.59869       41.78750       21.36843
N         69.87184       42.50899       24.44722
C         70.47441       42.62491       25.78026
C         70.20167       41.38009       26.61435
O         69.51605       40.48225       26.15214
C         69.97496       43.90730       26.49451
C         70.49253       45.18039       25.80795
O         68.57401       43.92423       26.60947
H         68.86354       42.31736       24.38750
H         71.58169       42.70428       25.70415
H         70.39595       43.94094       27.52111
H         68.19374       44.15966       25.72321
H         70.12150       45.25510       24.76477
H         70.15861       46.07509       26.37471
H         71.60436       45.17533       25.79237
N         70.73913       41.25227       27.86096
C         70.56306       40.08059       28.71379
C         69.84607       40.49497       29.99433
O         70.30832       41.39832       30.67837
C         71.95024       39.42141       28.99975
C         72.58388       38.93520       27.66478
C         71.81300       38.25257       29.99289
C         73.93273       38.22520       27.82021
H         71.32966       42.01520       28.22652
H         69.94391       39.30666       28.20756
H         72.62097       40.17552       29.46873
H         72.74286       39.81341       27.00332
H         71.88934       38.23496       27.14947
H         71.18697       37.44526       29.56568
H         72.80682       37.84081       30.25575
H         71.37388       38.59487       30.94943
H         74.33280       37.96997       26.81629
H         74.66204       38.87748       28.34366
H         73.82281       37.26934       28.37367
N         68.73939       39.80995       30.40746
C         68.04407       40.04079       31.66982
C         68.48117       38.99509       32.68249
O         69.29290       38.14293       32.35460
C         66.49766       39.98143       31.47820
C         65.97105       41.01534       30.48048
O         66.07317       38.68421       31.12787
H         68.44147       39.00290       29.85423
H         68.31983       41.03582       32.08240
H         66.00881       40.22555       32.44372
H         66.22719       38.54983       30.15841
H         66.38910       40.81502       29.47733
H         64.86292       40.94584       30.42078
H         66.24808       42.04096       30.80078
N         67.97322       38.99839       33.94513
C         68.31982       37.99700       34.95207
C         67.97763       36.60144       34.46814
O         68.78564       35.70166       34.64854
C         67.60794       38.26810       36.29614
C         68.05352       39.59556       36.91875
O         66.21377       38.26578       36.11869
H         67.29697       39.73448       34.19216
H         69.41532       38.03519       35.15181
H         67.90931       37.45041       36.99526
H         65.81338       37.93663       36.96520
H         69.15466       39.59601       37.06734
H         67.78006       40.45937       36.27909
H         67.56581       39.72601       37.90689
N         66.80277       36.35473       33.82415
C         66.45235       35.04140       33.29771
C         67.47782       34.59087       32.26515
O         68.04810       33.51970       32.41936
C         65.03427       35.04533       32.66855
C         63.88881       35.47032       33.61801
C         63.84174       34.64898       34.91926
C         62.65829       35.01007       35.83395
N         61.37087       34.59695       35.27211
H         66.14996       37.13951       33.68489
H         66.44896       34.30314       34.12795
H         64.81722       34.01506       32.30937
H         65.00904       35.72196       31.78573
H         62.94236       35.34912       33.05124
H         63.98245       36.54527       33.88140
H         64.76632       34.86398       35.49524
H         63.80980       33.56197       34.69152
H         62.65344       36.10268       36.04545
H         62.80139       34.47821       36.80083
H         61.37657       33.56718       35.08729
H         60.61700       34.80457       35.96644
H         61.15889       35.11649       34.39212
N         67.76281       35.37306       31.18517
C         68.70340       34.98864       30.12769
C         70.15431       34.92642       30.61915
O         71.00699       34.49626       29.85433
C         68.61841       35.99163       28.94779
C         67.20123       36.09406       28.34264
C         67.07854       37.23453       27.36524
O         67.34798       38.49338       27.75084
O         66.65926       37.04485       26.23903
H         67.26542       36.27100       31.11294
H         68.41012       33.98346       29.75170
H         69.33387       35.71198       28.14230
H         68.92124       36.97645       29.34034
H         66.45141       36.29553       29.12852
H         66.93356       35.12681       27.86658
N         70.52222       35.36287       31.85748
C         71.88933       35.33556       32.33216
H         72.54022       35.93716       31.66644
H         71.94137       35.77144       33.35448
H         72.26127       34.29132       32.37223
H         69.82186       35.75267       32.49046
Ca        67.09680       40.10221       24.71000
O         66.28738       41.83855       27.19857
H         65.80900       42.70127       27.28028
H         67.17788       42.00716       27.59652
O         64.26594       39.12062       27.52249
H         63.31217       38.96077       27.31408
H         64.48538       38.42731       28.19362

Ca 1.0



