%chk=holoCaM.loop1.water2.frame89.chk
%nprocshared=20
%mem=10GB
%nosave
#b3lyp/svp scf=(tight,noincore,xqc) Test 
#IOP(5/87=12) Density=Current Pop=(MK,readradii) iop(6/33=2) iop(6/42=6)

holoCaM.loop1.water2.frame89 

   0  1 
C        -15.22554        7.80285        7.41901
C        -16.19471        8.53051        6.53968
O        -17.37557        8.56739        6.85156
H        -14.44815        8.50795        7.78010
H        -15.74491        7.35670        8.29353
H        -14.74188        6.99012        6.83711
N        -15.75180        9.14054        5.40686
C        -16.63203        9.85206        4.48877
C        -17.67942        8.89675        3.91552
O        -17.34055        7.99017        3.16863
C        -15.77604       10.53742        3.40597
C        -16.58791       11.16343        2.32446
O        -16.38046       10.86121        1.16386
O        -17.54730       12.04823        2.62074
H        -14.74062        9.09915        5.20248
H        -17.14892       10.65791        5.05969
H        -15.08659        9.79974        2.94044
H        -15.16150       11.32481        3.89684
N        -18.97755        9.01979        4.31497
C        -20.04674        8.08425        3.97142
C        -20.57657        8.24741        2.55391
O        -21.19456        7.30647        2.07511
C        -21.23753        8.25237        4.95355
C        -20.85519        7.86519        6.39378
C        -21.98984        8.14147        7.38933
C        -21.60462        7.64609        8.79259
N        -22.64299        7.96186        9.77268
H        -19.17850        9.74844        5.00717
H        -19.66117        7.04664        4.08816
H        -22.08356        7.59861        4.64568
H        -21.59217        9.30591        4.91641
H        -19.96930        8.44057        6.72988
H        -20.60099        6.78258        6.40578
H        -22.91881        7.62412        7.06523
H        -22.18410        9.23628        7.41969
H        -20.64958        8.11922        9.11315
H        -21.45486        6.54335        8.75884
H        -23.55488        7.53707        9.48713
H        -22.36412        7.57106       10.70196
H        -22.74591        8.99901        9.86134
N        -20.50570        9.43143        1.87616
C        -21.16776        9.64626        0.58363
C        -20.21707       10.08369       -0.52603
O        -20.69425       10.40193       -1.60722
C        -22.37299       10.60297        0.74815
C        -22.07144       11.99834        1.21787
O        -20.81888       12.38938        1.50087
O        -22.98847       12.79255        1.35029
H        -20.03022       10.22729        2.32440
H        -21.62341        8.70128        0.21547
H        -23.07955       10.14478        1.47430
H        -22.90060       10.67652       -0.22839
N        -18.86382       10.03517       -0.37838
C        -17.94444       10.31950       -1.47215
C        -17.77687       11.79059       -1.80337
O        -16.99752       12.07695       -2.70201
H        -18.46727        9.67396        0.49967
H        -18.25246        9.74710       -2.37359
H        -16.93446        9.95365       -1.18719
N        -18.40812       12.78599       -1.11134
C        -18.14987       14.20689       -1.35944
C        -16.73231       14.64982       -0.96174
O        -16.42768       15.82212       -1.13636
C        -19.24194       15.10283       -0.71619
C        -19.42467       15.02904        0.77909
O        -20.29351       15.70924        1.29939
O        -18.70309       14.19298        1.54610
H        -19.09287       12.53215       -0.38965
H        -18.25477       14.39103       -2.45288
H        -20.21593       14.82473       -1.17611
H        -19.03771       16.16097       -0.99080
N        -15.79338       13.77737       -0.48164
C        -14.41715       14.14894       -0.19862
C        -14.22987       14.90430        1.09781
O        -13.09098       15.23508        1.39356
H        -16.01297       12.78327       -0.38121
H        -14.00147       14.72165       -1.05763
H        -13.81381       13.22027       -0.09978
N        -15.27127       15.20984        1.92650
C        -15.09984       15.93404        3.18539
C        -15.72914       15.18145        4.34982
O        -16.38130       14.17072        4.14278
C        -15.69447       17.35783        3.05919
C        -14.93689       18.20238        2.02621
O        -17.06620       17.32169        2.75736
H        -16.22485       14.94180        1.65432
H        -14.01945       16.04020        3.42417
H        -15.57876       17.88071        4.03221
H        -17.18068       16.95590        1.84242
H        -15.00627       17.75421        1.01257
H        -15.36297       19.22688        1.99162
H        -13.86590       18.27651        2.31277
N        -15.52427       15.62001        5.62685
C        -16.08832       14.98876        6.81668
C        -16.83412       16.05101        7.62964
O        -16.21693       16.98642        8.11798
C        -14.94270       14.27592        7.60690
C        -14.48233       13.02472        6.79975
C        -15.37260       13.86878        9.02438
C        -13.33409       12.23373        7.42944
H        -14.90416       16.43095        5.77028
H        -16.82420       14.20358        6.53380
H        -14.09702       14.98933        7.72439
H        -14.14896       13.33949        5.78900
H        -15.34325       12.32862        6.67525
H        -15.70378       14.75158        9.60645
H        -16.17917       13.11671        8.98705
H        -14.51805       13.44673        9.58919
H        -13.62344       11.80333        8.40980
H        -13.07452       11.38018        6.76707
H        -12.44058       12.87959        7.55114
N        -18.18722       15.95752        7.79150
C        -19.01270       16.88814        8.56504
C        -18.78302       16.68332       10.05728
O        -17.97496       15.84985       10.42819
C        -20.52933       16.64081        8.27658
C        -20.89812       16.77753        6.79926
O        -20.90495       15.36801        8.73220
H        -18.66059       15.18122        7.32813
H        -18.78084       17.93263        8.26211
H        -21.11535       17.41636        8.81852
H        -21.88396       15.39427        8.89488
H        -20.60644       17.77763        6.41846
H        -20.41184       15.98848        6.19569
H        -21.99600       16.65823        6.67832
N        -19.53169       17.35221       10.97830
C        -19.54267       16.99182       12.39448
C        -20.05421       15.55903       12.56483
O        -19.39220       14.76197       13.21428
C        -20.42243       17.96273       13.23385
C        -19.87121       19.39757       13.23696
O        -21.77469       17.93872       12.83943
H        -20.16606       18.09228       10.65053
H        -18.51015       17.06422       12.80604
H        -20.38583       17.61991       14.29155
H        -21.88668       18.52017       12.04364
H        -20.50166       20.03780       13.88982
H        -18.83322       19.40690       13.63170
H        -19.86796       19.83196       12.21570
N        -21.23824       15.17442       11.99833
C        -21.85775       13.85441       12.17731
C        -21.06201       12.70413       11.56340
O        -21.45718       11.56240       11.75856
C        -23.26620       13.82935       11.54101
C        -24.22504       14.86907       12.14235
C        -25.55687       14.86643       11.38036
C        -26.51322       15.97587       11.84448
N        -26.95352       15.79347       13.22752
H        -21.73497       15.87745       11.43519
H        -21.95929       13.66778       13.26984
H        -23.72395       12.82396       11.68038
H        -23.15767       14.01076       10.44934
H        -23.79841       15.88788       12.05948
H        -24.37849       14.63840       13.21764
H        -26.04993       13.87394       11.46884
H        -25.34083       15.05201       10.30466
H        -27.40471       15.96257       11.17960
H        -26.02022       16.96776       11.73274
H        -27.41674       14.86223       13.33581
H        -26.14876       15.87350       13.88825
H        -27.64323       16.54332       13.46187
N        -19.94269       12.91317       10.82020
C        -19.13633       11.84605       10.24404
C        -17.88330       11.69722       11.09490
O        -17.58872       10.58640       11.51356
C        -18.87676       12.12486        8.73953
C        -20.20164       12.13771        7.94564
C        -20.03410       12.36580        6.46193
O        -19.45972       13.48633        5.98833
O        -20.49238       11.56071        5.67276
H        -19.61464       13.87295       10.66831
H        -19.66075       10.86467       10.29576
H        -18.21996       11.32559        8.33017
H        -18.37081       13.10370        8.61754
H        -20.85696       12.93666        8.33872
H        -20.72104       11.16733        8.10047
N        -17.17237       12.78833       11.49652
C        -16.07145       12.74248       12.43679
H        -15.17362       13.20877       11.98447
H        -16.34957       13.32517       13.34270
H        -15.82392       11.70885       12.75297
H        -17.45534       13.71561       11.17549
Ca       -19.17087       13.92327        3.76942
O        -22.07034       14.03455        4.48660
H        -22.73264       13.55599        3.92890
H        -22.45572       14.93670        4.61613
O        -19.42084       16.75227        4.01485
H        -20.29870       17.08016        3.69815
H        -18.99138       17.54100        4.43056

Ca 1.0



