%chk=holoCaM.loop3.water2.frame116.chk
%nprocshared=20
%mem=10GB
%nosave
#b3lyp/svp scf=(tight,noincore,xqc) Test 
#IOP(5/87=12) Density=Current Pop=(MK,readradii) iop(6/33=2) iop(6/42=6)

holoCaM.loop3.water2.frame116 

   0  1 
C         81.90917       18.65252       17.26952
C         80.77640       17.67857       17.37337
O         80.35056       17.36800       18.47691
H         82.76505       18.16723       16.75349
H         81.58521       19.53870       16.68567
H         82.24060       18.98126       18.27706
N         80.25570       17.13194       16.24197
C         79.19632       16.13751       16.24047
C         79.79953       14.84360       15.74793
O         79.50886       14.38641       14.65034
C         78.01150       16.64118       15.39971
C         76.87589       15.67173       15.50052
O         76.41175       15.33858       16.71671
O         76.39132       15.16511       14.50165
H         80.66067       17.40250       15.33147
H         78.81585       15.95782       17.27146
H         78.30837       16.79811       14.33928
H         77.66576       17.61249       15.81520
N         80.71814       14.22675       16.53930
C         81.50364       13.07375       16.12314
C         80.66123       11.84203       15.82909
O         81.19601       10.91710       15.23800
C         82.58588       12.75879       17.17954
C         83.56848       13.93762       17.33449
C         84.58888       13.69331       18.44697
C         85.54827       14.88783       18.55545
N         86.51914       14.68858       19.62896
H         80.89463       14.64643       17.46452
H         82.01482       13.34792       15.17244
H         83.16580       11.86009       16.87616
H         82.08634       12.54353       18.15085
H         83.03065       14.87461       17.58560
H         84.09502       14.09315       16.36763
H         85.16560       12.76849       18.23087
H         84.05138       13.56606       19.41301
H         84.96879       15.81732       18.75739
H         86.08775       15.01628       17.59058
H         87.08037       13.82472       19.44984
H         87.16317       15.51175       19.66187
H         86.02550       14.60802       20.54753
N         79.34402       11.75230       16.18574
C         78.50992       10.63276       15.76112
C         78.38965       10.64662       14.24148
O         78.78042        9.66400       13.62257
C         77.16649       10.58883       16.53720
C         76.34847       11.85109       16.57314
O         75.83268       12.29644       15.56732
O         76.13247       12.46975       17.74984
H         78.92087       12.49849       16.75181
H         79.00989        9.67937       16.05052
H         77.42497       10.35674       17.59392
H         76.54375        9.74816       16.16021
N         77.93771       11.74377       13.56676
C         77.94343       11.86171       12.11675
C         76.56272       11.99311       11.50672
O         76.49504       12.15854       10.29796
H         77.63626       12.57211       14.09525
H         78.42298       10.97866       11.63905
H         78.55171       12.75145       11.84733
N         75.41830       11.84643       12.24097
C         74.10658       11.75087       11.60184
C         73.59434       13.06638       11.02974
O         72.67424       13.02213       10.22424
C         73.07896       11.08621       12.54137
C         72.57115       11.98526       13.64269
N         71.24066       12.16474       13.81217
O         73.35464       12.54268       14.39413
H         75.49532       11.63933       13.24206
H         74.23920       11.03526       10.75917
H         73.55164       10.18507       12.99016
H         72.21490       10.73690       11.93721
H         70.55957       11.68551       13.20550
H         70.88486       12.76596       14.56676
N         74.10900       14.27082       11.41375
C         73.70689       15.53713       10.82206
C         72.99504       16.46911       11.78012
O         72.81142       17.61593       11.39678
H         74.83659       14.30560       12.14323
H         73.03993       15.39961        9.94289
H         74.62975       16.03498       10.45249
N         72.50089       16.06325       12.99310
C         71.77685       16.97394       13.88490
C         72.38107       16.96506       15.30970
O         73.72563       16.60320       15.27904
C         70.28961       16.58072       13.99770
C         69.55142       16.58466       12.67898
C         69.79056       15.59125       11.71156
C         68.58502       17.57107       12.41844
C         69.07885       15.58927       10.50836
C         67.87927       17.57050       11.21249
C         68.12225       16.57710       10.25381
O         67.44033       16.55901        9.09093
H         72.59877       15.07844       13.27912
H         71.83134       18.01232       13.48866
H         69.80460       17.30848       14.68312
H         70.18090       15.57672       14.46015
H         70.51333       14.80598       11.89012
H         68.37875       18.34538       13.14688
H         69.26688       14.81423        9.77584
H         67.14097       18.34038       11.02726
H         66.76482       17.21972        8.88098
N         72.20003       18.25460       16.01067
C         72.34820       18.17413       17.48666
C         71.06305       18.55835       18.22626
O         70.59184       19.67888       18.09500
C         73.53018       19.06833       17.98624
C         73.46558       20.51302       17.40998
C         74.87940       18.40026       17.67391
C         74.52023       21.45974       17.98329
H         71.28729       18.69695       15.75522
H         72.57287       17.13402       17.80030
H         73.46439       19.11458       19.09793
H         72.48945       20.97715       17.64039
H         73.57572       20.48325       16.30414
H         75.05360       18.33513       16.58195
H         75.71721       18.95715       18.13875
H         74.90692       17.38170       18.11554
H         75.54714       21.13182       17.72859
H         74.37627       22.47123       17.54709
H         74.41167       21.53122       19.08632
N         70.45839       17.66523       19.06137
C         69.31037       18.01478       19.89657
C         69.71111       18.99462       20.99998
O         70.88561       19.30567       21.13922
C         68.71151       16.73831       20.52266
O         69.66128       16.09483       21.32681
H         70.83559       16.70775       19.11451
H         68.52537       18.47233       19.25516
H         68.39811       16.06004       19.69703
H         67.81830       16.98785       21.13524
H         69.28329       15.20588       21.55305
N         68.76675       19.49847       21.84659
C         69.08006       20.34340       22.99902
C         69.94274       19.59207       23.99306
O         70.87447       20.17283       24.53140
C         67.79565       20.79321       23.70036
H         67.78092       19.24561       21.68029
H         69.60481       21.26696       22.66485
H         67.21599       19.92006       24.06785
H         68.04542       21.44824       24.56392
H         67.16705       21.37674       22.99495
N         69.70223       18.27560       24.25407
C         70.53082       17.46194       25.13544
C         71.97942       17.48012       24.68197
O         72.84975       17.81049       25.47497
C         70.01606       16.01338       25.14585
H         68.91173       17.82135       23.77008
H         70.46408       17.85464       26.17432
H         68.96378       15.98379       25.49991
H         70.05166       15.56968       24.12719
H         70.63315       15.38660       25.82408
N         72.30330       17.13431       23.40536
C         73.67620       17.07724       22.90893
C         74.36384       18.43754       22.90772
O         75.58269       18.46824       22.80353
C         73.69520       16.51276       21.47559
C         73.19427       15.05675       21.40327
C         73.07026       14.65426       19.96735
O         71.98248       14.34934       19.50717
O         74.14042       14.73265       19.15985
H         71.53329       16.88196       22.77269
H         74.25425       16.39833       23.57462
H         74.72949       16.54454       21.06563
H         73.05370       17.16739       20.84075
H         72.19722       14.95451       21.87952
H         73.90371       14.38682       21.93296
N         73.66365       19.60245       22.97993
C         74.31047       20.89644       22.99211
H         74.92946       21.02535       22.07897
H         73.54508       21.70169       23.01869
H         74.95172       20.98821       23.89436
H         72.63967       19.58116       23.00403
Ca        73.81075       15.07946       16.96641
O         73.07606       11.43964       17.07028
H         73.03442       11.06611       17.98566
H         73.20894       10.65145       16.48531
O         70.82110       14.03282       16.80343
H         69.90096       14.14113       16.45574
H         71.07534       14.93954       17.10598

Ca 1.0



