%chk=holoCaM-CaMKII.loop4.water2.frame8.chk
%nprocshared=20
%mem=10GB
%nosave
#b3lyp/svp scf=(tight,noincore,xqc) Test 
#IOP(5/87=12) Density=Current Pop=(MK,readradii) iop(6/33=2) iop(6/42=6)

holoCaM-CaMKII.loop4.water2.frame8 

   -3  1 
C         72.04357       67.01412       37.41604
C         71.60497       66.83795       38.83571
O         71.26348       67.81500       39.48243
H         73.08826       66.65288       37.30922
H         71.38116       66.42735       36.74639
H         72.00254       68.08432       37.12234
N         71.58972       65.59643       39.38869
C         71.20264       65.34359       40.77094
C         72.17585       66.05039       41.71490
O         73.34123       65.68292       41.76522
C         71.16629       63.81833       40.99183
C         70.88441       63.41572       42.39844
O         71.70582       62.74128       42.99092
O         69.73404       63.75748       43.00440
H         71.86098       64.80111       38.78837
H         70.17256       65.73806       40.92786
H         72.15028       63.38848       40.69933
H         70.38966       63.37191       40.33251
N         71.75919       67.12505       42.44631
C         72.64464       67.93609       43.28682
C         72.81339       67.31338       44.66909
O         73.86781       67.48333       45.26514
C         72.10440       69.40717       43.39912
C         72.02200       70.05374       41.98652
C         72.97638       70.26964       44.33632
C         71.43033       71.46544       41.95737
H         70.78554       67.43965       42.32076
H         73.64421       68.01759       42.80174
H         71.08869       69.37761       43.84158
H         71.36671       69.43748       41.34542
H         73.03302       70.08239       41.52435
H         74.01492       70.34398       43.95131
H         72.55550       71.28827       44.45060
H         72.99479       69.84981       45.36211
H         70.41360       71.46872       42.39953
H         72.07136       72.19137       42.49562
H         71.35844       71.80921       40.90316
N         71.78671       66.64669       45.26690
C         71.79603       66.19830       46.66265
C         71.84171       64.68078       46.81595
O         71.77452       64.21118       47.94405
C         70.59353       66.82297       47.40832
C         69.26716       66.59188       46.72979
O         68.50455       67.53574       46.60052
O         69.06728       65.49613       45.97179
H         70.93552       66.48310       44.71255
H         72.70839       66.55915       47.18707
H         70.75979       67.92423       47.43638
H         70.55543       66.48321       48.46470
N         72.07302       63.85746       45.75666
C         72.38014       62.44109       45.91499
C         71.18283       61.50957       45.95685
O         71.41563       60.30966       46.01014
H         72.24173       64.28169       44.83529
H         73.02774       62.28810       46.80604
H         72.99359       62.12790       45.04402
N         69.88811       61.94471       45.91984
C         68.74966       61.01849       45.92754
C         68.55298       60.25905       44.60295
O         67.60465       59.49153       44.51443
C         67.45521       61.72120       46.40708
C         66.97183       62.87090       45.57203
O         66.65306       62.70646       44.40963
O         66.80608       64.08065       46.13656
H         69.70415       62.95692       45.93187
H         68.92995       60.25209       46.71504
H         67.63458       62.09681       47.43844
H         66.63906       60.96905       46.46873
N         69.42625       60.36622       43.55809
C         69.32387       59.59189       42.32796
C         68.26218       60.06976       41.35829
O         68.16718       59.47247       40.29377
H         70.26078       60.94691       43.65568
H         69.18204       58.51686       42.57323
H         70.28870       59.68165       41.78159
N         67.45391       61.13718       41.61492
C         66.48127       61.66015       40.65816
C         66.77073       63.11913       40.35051
O         67.63246       63.71038       40.99121
C         65.05159       61.50756       41.21075
C         64.67139       60.03546       41.42120
C         63.24213       59.91047       41.88447
N         62.94305       59.33014       43.06988
O         62.34044       60.33076       41.17417
H         67.54047       61.61950       42.51503
H         66.54612       61.10689       39.69549
H         64.33560       61.95508       40.48789
H         64.96214       62.04952       42.17584
H         65.35836       59.57781       42.16572
H         64.77749       59.48345       40.46259
H         63.68469       58.96414       43.68407
H         61.96192       59.24416       43.37471
N         66.10545       63.75802       39.34411
C         66.34932       65.15002       38.98355
C         65.03940       65.92218       39.03983
O         64.17338       65.70826       38.20104
C         67.01341       65.22617       37.57847
C         67.24861       66.67665       37.12532
C         68.35828       64.47815       37.57353
H         65.42170       63.22498       38.78291
H         67.05821       65.61247       39.70695
H         66.34325       64.73814       36.83573
H         66.28865       67.22586       37.04888
H         67.91649       67.21009       37.83458
H         67.71509       66.68910       36.11664
H         69.06291       64.94004       38.29749
H         68.22183       63.41020       37.84363
H         68.81584       64.51163       36.56183
N         64.82774       66.83321       40.02931
C         63.63450       67.67561       40.12874
C         63.69309       68.78463       39.07695
O         64.69699       68.89985       38.39607
C         63.57919       68.23861       41.57723
C         62.43204       69.15906       41.90794
N         61.14637       68.76789       41.75799
O         62.67207       70.27409       42.34369
H         65.54894       66.91611       40.76103
H         62.73133       67.04716       39.96756
H         64.52846       68.77570       41.79073
H         63.51822       67.37425       42.27302
H         60.91575       67.83200       41.39743
H         60.37833       69.41580       41.99014
N         62.65039       69.64230       38.88587
C         62.70848       70.80709       38.00063
C         63.72716       71.81113       38.52094
O         64.56500       72.26507       37.75345
C         61.32463       71.48671       37.92805
C         61.34776       72.72692       37.06034
C         61.65625       72.64640       35.69035
C         61.07029       73.98248       37.62602
C         61.68829       73.80342       34.90450
C         61.10390       75.13653       36.83944
C         61.41346       75.05094       35.47487
O         61.45006       76.15747       34.70530
H         61.77910       69.47435       39.40450
H         62.97944       70.48425       36.97043
H         61.00418       71.75237       38.95954
H         60.57907       70.77151       37.51821
H         61.87364       71.69128       35.22927
H         60.83431       74.07052       38.67887
H         61.92861       73.73059       33.85100
H         60.89110       76.09618       37.29309
H         61.26635       77.03826       35.06243
N         63.71631       72.17799       39.83754
C         64.64859       73.13223       40.44555
C         66.11418       72.71988       40.30719
O         66.97015       73.50837       40.68533
C         64.35916       73.29590       41.96315
C         62.95142       73.80371       42.31973
C         62.71089       75.19826       41.82219
O         61.78904       75.42753       41.05633
O         63.49679       76.20872       42.24131
H         63.00010       71.74471       40.43041
H         64.52132       74.11089       39.93251
H         65.09562       73.99950       42.41191
H         64.50608       72.30752       42.45225
H         62.85389       73.81343       43.42679
H         62.17266       73.11731       41.92901
N         66.48502       71.52204       39.77364
C         67.86151       71.09670       39.59724
C         68.18400       71.14245       38.11583
O         69.12198       71.83108       37.73797
C         68.06572       69.71138       40.25517
C         67.66223       69.78916       41.73982
C         68.02095       68.58063       42.55110
O         68.74456       68.72265       43.52195
O         67.53593       67.35268       42.28927
H         65.77232       70.85430       39.47192
H         68.56165       71.80099       40.10158
H         69.13822       69.43824       40.16469
H         67.45603       68.92907       39.75049
H         66.56954       69.95909       41.82435
H         68.17539       70.66158       42.19887
N         67.39187       70.51496       37.20491
C         67.57679       70.66426       35.77889
H         67.50548       71.73956       35.50258
H         68.56356       70.26244       35.47405
H         66.77469       70.11817       35.23654
H         66.59526       69.95752       37.52404
Ca        68.17528       65.93347       43.93339
O         64.92600       65.08616       43.18449
H         64.62701       64.14949       43.08196
H         64.37893       65.43246       43.93308
O         65.80360       67.62284       44.80845
H         65.97059       67.23350       45.70314
H         64.93759       68.09308       44.89754

Ca 1.0



