%chk=holoCaM.loop4.water3.frame386.chk
%nprocshared=20
%mem=10GB
%nosave
#b3lyp/svp scf=(tight,noincore,xqc) Test 
#IOP(5/87=12) Density=Current Pop=(MK,readradii) iop(6/33=2) iop(6/42=6)

holoCaM.loop4.water3.frame386 

   -3  1 
C         88.67903       57.94500       95.66033
C         88.74432       56.90697       96.74257
O         87.71925       56.31023       97.03009
H         88.95868       58.94084       96.05691
H         89.36822       57.66225       94.83630
H         87.64984       58.00222       95.23929
N         89.92722       56.61686       97.36764
C         90.08231       55.52810       98.34084
C         91.51970       55.46535       98.87530
O         92.44992       55.36669       98.08748
C         89.71048       54.18811       97.66864
C         89.93269       52.95364       98.49502
O         90.68782       52.09856       98.06582
O         89.32071       52.70709       99.66619
H         90.75697       57.17009       97.10142
H         89.38389       55.69172       99.18288
H         90.32180       54.09084       96.74501
H         88.64534       54.17823       97.37214
N         91.75122       55.46721      100.22281
C         93.06299       55.35712      100.86333
C         93.19700       54.09225      101.71873
O         94.30170       53.83322      102.17744
C         93.32057       56.58016      101.80751
C         92.21204       56.71584      102.89863
C         93.45179       57.87668      100.99528
C         92.61747       57.59228      104.08410
H         90.94282       55.52160      100.83890
H         93.85834       55.30601      100.08696
H         94.29317       56.40512      102.32122
H         91.97261       55.72642      103.34041
H         91.28264       57.11746      102.44372
H         92.52412       58.07219      100.41668
H         93.64526       58.74751      101.65328
H         94.30481       57.79383      100.28995
H         93.46947       57.12231      104.62172
H         92.89942       58.61598      103.77378
H         91.76395       57.66633      104.79244
N         92.11831       53.33130      102.07266
C         92.18097       52.25787      103.06465
C         91.65343       50.91983      102.55477
O         91.71351       49.95768      103.30844
C         91.50983       52.71560      104.39022
C         90.08998       53.23507      104.34503
O         89.40999       53.37405      103.19590
O         89.56847       53.60621      105.38278
H         91.19635       53.57868      101.70397
H         93.23960       52.05396      103.33990
H         92.12460       53.54720      104.80080
H         91.55765       51.87988      105.12140
N         91.19370       50.74894      101.28167
C         90.83647       49.44768      100.72877
C         89.61853       48.77468      101.33896
O         89.34527       47.64689      100.95246
H         91.18864       51.54724      100.63953
H         91.71419       48.77565      100.84305
H         90.63611       49.55883       99.64119
N         88.83898       49.37259      102.28395
C         87.69423       48.70541      102.91245
C         86.49387       48.51754      101.97944
O         85.50139       47.95584      102.42317
C         87.27895       49.47691      104.18612
C         86.62682       50.80191      103.92013
O         87.11641       51.59513      103.13481
O         85.49919       51.12725      104.57661
H         89.10548       50.30907      102.61249
H         88.04252       47.70939      103.26684
H         88.19097       49.64418      104.79669
H         86.57786       48.86584      104.79624
N         86.49648       48.96302      100.68779
C         85.35352       48.84033       99.79711
C         84.21373       49.79473      100.11588
O         83.21292       49.71538       99.41744
H         87.34558       49.38123      100.29238
H         84.99500       47.78673       99.80076
H         85.67670       49.07723       98.76018
N         84.27459       50.72096      101.12424
C         83.16476       51.61269      101.45513
C         83.56827       53.07436      101.41908
O         84.54709       53.45898      102.04408
C         82.56649       51.27802      102.82422
C         82.11495       49.81197      102.86912
C         81.11226       49.57704      103.96353
N         81.41834       49.79590      105.26105
O         79.99137       49.19129      103.66561
H         85.11747       50.78224      101.70416
H         82.32942       51.46675      100.73613
H         81.68057       51.94081      102.94569
H         83.26464       51.49300      103.65747
H         83.00076       49.14926      102.98547
H         81.61873       49.55442      101.90770
H         82.35401       50.12419      105.53757
H         80.70656       49.64031      105.99032
N         82.81022       53.95228      100.70691
C         83.09853       55.37493      100.58824
C         82.83460       56.08951      101.91055
O         81.74016       55.98092      102.44533
C         82.24996       56.01769       99.44984
C         82.66983       57.47565       99.21637
C         82.41198       55.26707       98.11328
H         81.98570       53.57969      100.21673
H         84.15742       55.49447      100.28110
H         81.17344       55.99541       99.72934
H         82.05738       57.91056       98.40112
H         82.50341       58.08800      100.11868
H         83.74463       57.53723       98.93138
H         83.47563       55.25267       97.79508
H         82.04745       54.22366       98.17219
H         81.80699       55.76355       97.32525
N         83.77713       56.91995      102.43249
C         83.58680       57.76052      103.61084
C         83.27216       59.17985      103.15819
O         83.30064       59.45241      101.97014
C         84.88134       57.68236      104.47064
C         84.90254       58.51035      105.73326
N         83.97338       58.33555      106.69725
O         85.78801       59.33721      105.89758
H         84.63451       57.05114      101.89246
H         82.71397       57.40441      104.19787
H         85.74537       57.99974      103.84397
H         85.04177       56.62471      104.76360
H         83.21781       57.64676      106.58298
H         84.00763       58.90372      107.55559
N         82.89982       60.13088      104.05538
C         82.66014       61.53098      103.69658
C         83.95418       62.28567      103.38842
O         83.86772       63.40332      102.89896
C         81.82885       62.22690      104.79812
C         82.42148       62.07372      106.18212
C         81.82952       61.17230      107.08528
C         83.56043       62.78940      106.58000
C         82.37207       60.97935      108.35448
C         84.09627       62.60515      107.86092
C         83.50757       61.69706      108.74914
O         84.03927       61.51920      109.97498
H         82.75109       59.82637      105.02220
H         82.03155       61.55075      102.77605
H         80.83863       61.72111      104.78335
H         81.63746       63.29721      104.56537
H         80.96018       60.59467      106.79561
H         84.02791       63.49167      105.90408
H         81.91232       60.26422      109.02487
H         84.97266       63.16465      108.16247
H         83.65736       60.89946      110.61355
N         85.18251       61.72848      103.60764
C         86.44223       62.33350      103.18403
C         86.86613       61.77906      101.82783
O         87.85969       62.24508      101.28853
C         87.54885       62.02561      104.22253
C         87.29468       62.64880      105.60098
C         87.35553       64.14880      105.54640
O         86.28485       64.88553      105.89464
O         88.38261       64.70751      105.19417
H         85.23423       60.77581      103.98293
H         86.32285       63.43206      103.05849
H         88.53615       62.38118      103.85482
H         87.62043       60.92066      104.34143
H         88.07811       62.29736      106.30719
H         86.31355       62.30921      105.99008
N         86.16153       60.78128      101.22159
C         86.49568       60.17443       99.94301
C         85.36120       60.33067       98.93444
O         85.55544       59.94123       97.79087
C         86.74044       58.67194      100.17650
C         87.85766       58.42286      101.19894
C         87.92366       56.98654      101.60674
O         88.95450       56.36799      101.47657
O         86.87383       56.38356      102.18243
H         85.36352       60.37960      101.70826
H         87.40663       60.64592       99.51649
H         86.97910       58.15323       99.22375
H         85.79338       58.25102      100.56180
H         87.67243       58.99376      102.13043
H         88.82714       58.75139      100.76371
N         84.14269       60.84955       99.27169
C         83.06148       60.95688       98.31672
H         82.14478       61.33100       98.82215
H         83.34122       61.65553       97.50344
H         82.83669       59.96562       97.87762
H         83.94403       61.16097      100.23086
Ca        88.18774       53.65479      101.33048
O         86.39608       54.94301       99.19888
H         85.87233       54.49763       98.48781
H         86.20702       55.90432       99.06651
O         86.54458       54.51417      104.16897
H         87.48444       54.66895      104.43109
H         86.37853       53.56801      104.39082
O         86.49534       51.93405       99.37256
H         86.09549       52.18086       98.50294
H         87.22210       51.31016       99.12906

Ca 1.0



