%chk=holoCaM.loop2.water2.frame485.chk
%nprocshared=20
%mem=10GB
%nosave
#b3lyp/svp scf=(tight,noincore,xqc) Test 
#IOP(5/87=12) Density=Current Pop=(MK,readradii) iop(6/33=2) iop(6/42=6)

holoCaM.loop2.water2.frame485 

   -2  1 
C         70.76993       74.93169       49.68023
C         69.85732       75.41284       50.76661
O         70.30596       75.56771       51.89452
H         71.79413       74.75882       50.07644
H         70.38268       73.98493       49.25261
H         70.82819       75.70177       48.88182
N         68.55447       75.70542       50.48941
C         67.66589       76.26966       51.49388
C         67.41301       75.27221       52.61546
O         66.87167       74.20493       52.36139
C         66.31360       76.70821       50.87834
C         65.54858       77.64370       51.78848
O         66.22545       78.32850       52.71688
O         64.42428       77.99471       51.50227
H         68.21596       75.58706       49.52195
H         68.17597       77.18390       51.86956
H         65.71026       75.81535       50.61143
H         66.49747       77.28057       49.94279
N         67.77646       75.57118       53.88960
C         67.53890       74.70123       55.03477
C         66.05624       74.45851       55.26274
O         65.67944       73.31047       55.45187
C         68.15479       75.31303       56.29801
H         68.25164       76.46576       54.05051
H         68.05442       73.72747       54.87502
H         68.01024       74.63067       57.16293
H         69.24767       75.45052       56.15176
H         67.69499       76.29469       56.53477
N         65.15491       75.48607       55.23502
C         63.72471       75.30174       55.49288
C         62.88629       75.29206       54.21674
O         61.67681       75.13683       54.31975
C         63.20975       76.32947       56.52609
C         63.16820       77.74611       56.01852
O         64.19186       78.33031       55.70591
O         61.98746       78.38820       55.93551
H         65.49739       76.42235       54.97810
H         63.56120       74.30285       55.95419
H         63.83243       76.28296       57.44588
H         62.17388       76.04161       56.81171
N         63.45664       75.35859       52.97876
C         62.70745       75.16508       51.74575
C         61.75311       76.27878       51.36166
O         61.06929       76.10027       50.36322
H         64.47795       75.42831       52.89699
H         62.14103       74.21146       51.82860
H         63.42214       75.05205       50.90370
N         61.63105       77.44376       52.06395
C         60.64583       78.46374       51.69653
C         60.89039       79.12944       50.33274
O         60.03736       79.90070       49.91703
C         60.47956       79.50677       52.82880
C         61.63727       80.45765       53.02311
N         61.42820       81.79549       52.98653
O         62.75654       80.02752       53.25410
H         62.19585       77.57572       52.91464
H         59.66578       77.94060       51.63848
H         60.30916       78.96102       53.78165
H         59.56150       80.09942       52.62723
H         60.48909       82.18379       52.81805
H         62.19887       82.45384       53.15492
N         62.01683       78.90442       49.59009
C         62.27672       79.50800       48.28917
C         63.34361       80.58598       48.34901
O         63.68482       81.12174       47.30441
H         62.75032       78.29093       49.95067
H         61.36413       79.98610       47.87576
H         62.58090       78.70288       47.58521
N         63.85469       81.01255       49.53840
C         64.75731       82.14865       49.69006
C         66.00710       81.69503       50.42339
O         65.90754       80.82195       51.26755
C         63.98251       83.24327       50.46737
C         64.82298       84.47924       50.78682
O         62.87194       83.66195       49.71164
H         63.53233       80.56926       50.41069
H         65.05285       82.57920       48.70760
H         63.63817       82.83100       51.43935
H         62.18478       82.94734       49.76471
H         64.19856       85.21245       51.34295
H         65.68818       84.21556       51.42783
H         65.18829       84.95468       49.85345
N         67.21574       82.27988       50.18805
C         68.44476       81.87419       50.86748
C         68.79704       82.92404       51.91150
O         68.95868       84.08515       51.56176
C         69.59754       81.67189       49.83333
C         69.21327       80.60826       48.77199
C         70.90631       81.27372       50.54765
C         70.22690       80.50255       47.62660
H         67.26433       83.06627       49.52183
H         68.29700       80.90530       51.39171
H         69.76388       82.64088       49.31180
H         68.24499       80.88773       48.30621
H         69.09071       79.61315       49.25398
H         70.78178       80.31194       51.08990
H         71.75412       81.18056       49.84227
H         71.20659       82.05792       51.26348
H         70.33799       81.48740       47.12383
H         71.21994       80.15859       47.97758
H         69.86691       79.76512       46.87936
N         68.96251       82.56406       53.22109
C         69.42227       83.48021       54.25891
C         70.94391       83.44588       54.29384
O         71.52084       82.62897       53.59685
C         68.85279       83.08451       55.64779
C         67.35314       82.89858       55.67470
O         66.77911       81.88606       54.99311
O         66.65274       83.63888       56.34481
H         68.91119       81.57110       53.46323
H         69.08819       84.51050       54.00447
H         69.13899       83.87669       56.37434
H         69.30542       82.12693       55.98553
N         71.68005       84.31283       55.04487
C         73.14250       84.28742       55.00849
C         73.70821       82.98495       55.58281
O         74.50097       82.37033       54.88365
C         73.76317       85.55332       55.64036
C         75.25886       85.64240       55.39501
C         75.77426       85.65679       54.08152
C         76.15484       85.73061       56.47440
C         77.15101       85.74460       53.85867
C         77.53256       85.82689       56.24491
C         78.02981       85.83093       54.93911
H         71.19488       85.03682       55.59623
H         73.43065       84.34211       53.93631
H         73.53951       85.60865       56.72130
H         73.29938       86.44413       55.16380
H         75.11813       85.60125       53.22315
H         75.78945       85.73099       57.49313
H         77.53593       85.74935       52.84639
H         78.21662       85.89991       57.08010
H         79.09555       85.90420       54.76328
N         73.34133       82.46244       56.80134
C         73.79742       81.17130       57.31915
C         73.75130       80.05542       56.29403
O         74.72628       79.33764       56.12569
C         72.79027       80.86695       58.44147
C         72.51853       82.24457       58.98569
C         72.37333       83.05910       57.70379
H         74.82405       81.28644       57.73163
H         71.82235       80.51276       58.01524
H         73.13443       80.11257       59.18020
H         71.65519       82.32365       59.68037
H         73.44044       82.57499       59.51568
H         71.36035       82.94512       57.26422
H         72.57497       84.11723       57.94807
N         72.62485       79.88243       55.55858
C         72.43799       78.84604       54.55145
C         73.48086       78.97519       53.45909
O         74.16048       78.00018       53.17011
C         71.01538       78.95807       53.98439
C         69.97127       78.68454       55.09179
C         68.58148       78.92737       54.62582
O         68.37448       79.29825       53.48569
O         67.55108       78.73706       55.47178
H         71.86183       80.55763       55.71698
H         72.52951       77.83801       55.01530
H         70.86425       78.22306       53.16210
H         70.87289       79.98005       53.56871
H         70.11219       79.34557       55.96816
H         70.06518       77.63290       55.43208
N         73.70039       80.16773       52.84513
C         74.73449       80.35372       51.85337
H         75.72126       80.07343       52.28132
H         74.52142       79.73238       50.95966
H         74.77694       81.42232       51.55123
H         73.14640       80.98430       53.12104
Ca        65.72816       80.21742       53.87112
O         63.72103       81.35383       56.48989
H         63.46596       82.23522       56.86119
H         62.92330       80.78724       56.63661
O         64.48670       83.09849       53.97934
H         64.03275       83.60880       54.69508
H         65.25822       83.66185       53.72302

Ca 1.0



