%chk=holoCaM-CaMKII.loop1.water2.frame250.chk
%nprocshared=20
%mem=10GB
%nosave
#b3lyp/svp scf=(tight,noincore,xqc) Test 
#IOP(5/87=12) Density=Current Pop=(MK,readradii) iop(6/33=2) iop(6/42=6)

holoCaM-CaMKII.loop1.water2.frame250 

   0  1 
C         91.80105        4.45693       44.67027
C         92.00144        3.55307       43.49178
O         91.11067        3.46069       42.66143
H         90.89915        4.13322       45.23025
H         92.67119        4.42256       45.35938
H         91.66244        5.50069       44.32076
N         93.15576        2.84644       43.35166
C         93.39174        1.92712       42.24625
C         92.37603        0.79706       42.30590
O         92.34004        0.09518       43.30725
C         94.84487        1.41045       42.32115
C         95.20221        0.45415       41.22770
O         95.10421        0.77522       40.05441
O         95.68247       -0.75659       41.55258
H         93.89378        2.96896       44.06314
H         93.29138        2.48144       41.29235
H         95.02096        0.91567       43.30130
H         95.53596        2.27487       42.24615
N         91.51528        0.56968       41.26737
C         90.50582       -0.48579       41.28584
C         90.83358       -1.61788       40.31555
O         90.09917       -2.59666       40.32776
C         89.10299        0.07630       40.94174
C         88.50409        1.12239       41.90029
C         88.38495        0.61079       43.34573
C         87.40441        1.43065       44.20658
N         87.76259        2.84472       44.30923
H         91.58835        1.15409       40.42183
H         90.46635       -0.96220       42.28816
H         88.38460       -0.77298       40.91939
H         89.12646        0.51660       39.91970
H         87.48343        1.33898       41.51293
H         89.08343        2.06784       41.87521
H         89.39351        0.59012       43.81267
H         87.98416       -0.42576       43.33229
H         87.37983        0.98455       45.22589
H         86.38132        1.34368       43.77669
H         87.07287        3.31703       44.93873
H         88.71947        2.94863       44.71463
H         87.71215        3.30462       43.37227
N         91.89663       -1.57929       39.45688
C         92.22617       -2.67896       38.54588
C         93.62952       -3.24637       38.78396
O         94.04130       -4.11908       38.03242
C         91.95745       -2.27207       37.08156
C         92.75825       -1.12230       36.54639
O         92.58128       -0.76362       35.39340
O         93.65904       -0.47839       37.30852
H         92.49257       -0.74140       39.43314
H         91.54099       -3.53845       38.71229
H         90.88019       -2.00683       36.99393
H         92.13749       -3.15521       36.43019
N         94.36731       -2.89492       39.87714
C         95.59175       -3.58118       40.27570
C         96.85432       -3.22533       39.51273
O         97.89251       -3.75739       39.88223
H         93.96912       -2.22763       40.55098
H         95.42303       -4.67865       40.25134
H         95.80052       -3.31541       41.33478
N         96.88729       -2.32870       38.48515
C         98.14111       -1.93298       37.83037
C         99.08711       -1.12140       38.73458
O        100.16300       -0.77343       38.26630
C         97.87611       -1.21502       36.48274
C         96.88959       -0.08308       36.53760
O         97.07471        0.96092       37.35634
O         95.90483       -0.10800       35.81836
H         96.00035       -1.92469       38.15525
H         98.70272       -2.85249       37.54821
H         97.47854       -1.96780       35.76677
H         98.83894       -0.84918       36.06333
N         98.80431       -0.83093       40.04003
C         99.73933       -0.15477       40.93020
C         99.86494        1.33470       40.69310
O        100.60405        1.96346       41.43947
H         97.93106       -1.15782       40.46411
H        100.73374       -0.65040       40.87879
H         99.36851       -0.26376       41.97293
N         99.15948        1.98235       39.72277
C         99.17242        3.43050       39.54563
C         97.76867        3.98624       39.73005
O         96.81943        3.21393       39.80154
C         99.75323        3.81552       38.16365
C        101.19980        3.32494       37.99018
O         98.93947        3.34308       37.11868
H         98.55399        1.43692       39.10501
H         99.80989        3.89873       40.32762
H         99.77889        4.92384       38.08856
H         99.12523        2.37708       36.99078
H        101.84787        3.74666       38.78638
H        101.25079        2.21554       38.03874
H        101.58937        3.64944       37.00210
N         97.57241        5.32569       39.88913
C         96.26411        5.92083       40.14850
C         96.01907        7.02909       39.13968
O         96.73434        8.02282       39.16559
C         96.20863        6.43676       41.61938
C         96.38653        5.24355       42.59841
C         94.88458        7.17457       41.90732
C         96.57164        5.65175       44.05919
H         98.39706        5.94719       39.89143
H         95.46540        5.16009       40.04140
H         97.04926        7.15151       41.76417
H         97.29667        4.66772       42.33148
H         95.51023        4.56636       42.51433
H         94.76464        8.04528       41.23309
H         94.01696        6.49381       41.77269
H         94.86656        7.58083       42.93766
H         96.71909        4.73854       44.67470
H         97.47337        6.29239       44.16042
H         95.68768        6.18613       44.45733
N         95.03061        6.92080       38.20575
C         94.74864        7.97706       37.23486
C         93.96507        9.10199       37.90792
O         93.59612        8.95807       39.06161
C         93.96750        7.41871       36.01063
C         94.71059        6.26362       35.32855
O         92.70365        6.96812       36.40476
H         94.47960        6.05247       38.17015
H         95.71431        8.36807       36.84436
H         93.85119        8.24657       35.27422
H         92.16991        6.84742       35.57645
H         95.72638        6.57737       35.01351
H         94.78673        5.39579       36.01380
H         94.14553        5.92864       34.43246
N         93.65602       10.24999       37.24241
C         92.79100       11.29040       37.81103
C         91.38170       10.74416       38.00609
O         90.82096       10.89242       39.08227
C         92.75056       12.55281       36.91462
C         94.11763       13.24636       36.86747
O         92.33209       12.22579       35.61426
H         94.02427       10.37167       36.28733
H         93.18836       11.62314       38.79744
H         92.02758       13.26677       37.37820
H         91.96859       13.05694       35.21077
H         94.43362       13.53449       37.89362
H         94.89130       12.58417       36.42735
H         94.05092       14.17043       36.25555
N         90.78304       10.04768       36.99954
C         89.46174        9.42080       37.06606
C         89.31928        8.55976       38.31154
O         88.38154        8.77461       39.06744
C         89.27143        8.58921       35.77647
C         87.98421        7.75310       35.70309
C         87.95172        6.88062       34.43218
C         87.81423        7.69238       33.13205
N         87.82194        6.81108       31.96459
H         91.33438        9.91257       36.13780
H         88.67531       10.20840       37.10168
H         90.12354        7.88543       35.69036
H         89.31538        9.29513       34.92155
H         87.08293        8.40015       35.75765
H         87.97034        7.05815       36.57039
H         87.08361        6.19051       34.50212
H         88.87624        6.26169       34.39366
H         88.64888        8.41511       33.02366
H         86.85884        8.26165       33.16066
H         88.74213        6.31728       31.89857
H         87.04914        6.10995       32.03051
H         87.68751        7.38548       31.10115
N         90.22554        7.58698       38.60256
C         90.15153        6.75616       39.79918
C         90.12993        7.61619       41.05053
O         89.22973        7.45387       41.86288
C         91.32213        5.75018       39.87042
C         91.25277        4.68210       38.76258
C         92.20812        3.52933       39.06175
O         92.11566        2.53318       38.08362
O         93.53557        3.95794       39.09936
H         91.01220        7.45774       37.95981
H         89.21109        6.16065       39.77918
H         91.23396        5.22330       40.84235
H         92.30571        6.27158       39.85007
H         91.46070        5.12202       37.76534
H         90.23205        4.24426       38.74873
N         91.06695        8.57814       41.25505
C         91.05683        9.43533       42.41898
H         91.87186       10.18645       42.34160
H         90.08740        9.97470       42.48604
H         91.21175        8.82866       43.33525
H         91.79109        8.73057       40.54684
Ca        94.33414        2.46811       37.59609
O         96.38560        3.13750       35.53168
H         96.02280        3.59428       34.73267
H         96.54771        3.86304       36.18580
O         93.10162        2.67156       34.93090
H         92.74312        1.82372       35.29367
H         92.42403        3.34910       35.17905

Ca 1.0



