%chk=holoCaM-CaMKII.loop1.water2.frame99.chk
%nprocshared=20
%mem=10GB
%nosave
#b3lyp/svp scf=(tight,noincore,xqc) Test 
#IOP(5/87=12) Density=Current Pop=(MK,readradii) iop(6/33=2) iop(6/42=6)

holoCaM-CaMKII.loop1.water2.frame99 

   0  1 
C         16.65369       47.53987       46.94373
C         15.51676       47.76125       45.99114
O         14.36914       47.76814       46.40745
H         17.32668       48.42439       46.92171
H         16.28467       47.39866       47.98087
H         17.22965       46.64207       46.63597
N         15.78221       47.96337       44.67512
C         14.76598       48.26050       43.67196
C         13.75787       47.11639       43.55176
O         14.16606       45.98010       43.35791
C         15.47232       48.51978       42.32480
C         14.59082       49.10434       41.26705
O         15.05342       49.31707       40.16318
O         13.32440       49.45620       41.52719
H         16.77287       47.93932       44.38382
H         14.25383       49.20395       43.97091
H         15.91912       47.57162       41.95616
H         16.28867       49.25975       42.47748
N         12.41826       47.36477       43.63833
C         11.37049       46.34713       43.57278
C         10.49497       46.48988       42.32803
O          9.59855       45.67351       42.16149
C         10.43848       46.46304       44.80767
C         11.12450       46.38685       46.18165
C         11.97055       45.12733       46.41583
C         11.18206       43.81924       46.24833
N         12.03879       42.66525       46.51474
H         12.12529       48.33692       43.73666
H         11.82384       45.33361       43.53983
H          9.66311       45.66850       44.75431
H          9.89995       47.43678       44.76660
H         10.33149       46.44240       46.96076
H         11.77646       47.27596       46.31219
H         12.37399       45.17832       47.45093
H         12.83120       45.12936       45.71573
H         10.79794       43.73924       45.20880
H         10.31537       43.80698       46.94589
H         12.37158       42.68698       47.50584
H         11.49198       41.78828       46.35726
H         12.85991       42.67174       45.86631
N         10.66645       47.50227       41.42900
C          9.79355       47.73651       40.28446
C         10.54763       47.66509       38.96175
O          9.92019       47.86827       37.93038
C          9.18577       49.15229       40.40511
C          8.54011       49.40130       41.73853
O          8.95346       50.29941       42.45554
O          7.50804       48.64274       42.15044
H         11.41507       48.17936       41.57496
H          8.97078       46.98831       40.26141
H          8.43359       49.30896       39.60172
H          9.99524       49.90373       40.26940
N         11.89284       47.42881       38.89770
C         12.64232       47.49053       37.65199
C         12.78926       48.90545       37.09951
O         13.39894       49.04576       36.04897
H         12.42339       47.20166       39.75026
H         12.16607       46.82200       36.90184
H         13.67234       47.11501       37.83552
N         12.28583       50.00232       37.74488
C         12.41326       51.37448       37.24903
C         13.83374       51.94841       37.32512
O         14.01004       53.09873       36.94694
C         11.38213       52.29835       37.94865
C         11.45165       52.42432       39.45197
O         12.36145       51.76414       40.19399
O         10.61713       53.11169       40.01576
H         11.75091       49.86404       38.60873
H         12.11168       51.38545       36.17761
H         10.37032       51.90345       37.70798
H         11.45357       53.31580       37.50638
N         14.90125       51.21391       37.75153
C         16.27048       51.70794       37.77031
C         16.57633       52.72782       38.85194
O         17.72799       53.13172       38.92422
H         14.76905       50.23018       38.00052
H         16.53076       52.11743       36.76973
H         16.94675       50.84656       37.96415
N         15.63789       53.18126       39.73450
C         15.94353       54.12224       40.81328
C         15.58419       53.52753       42.16742
O         15.01594       52.44837       42.23335
C         15.19839       55.45874       40.58076
C         15.76273       56.19867       39.36221
O         13.82849       55.21138       40.40208
H         14.66752       52.85251       39.65547
H         17.03426       54.33633       40.85331
H         15.34683       56.11637       41.46737
H         13.37228       56.09294       40.39444
H         16.83987       56.42082       39.52174
H         15.64657       55.59550       38.43818
H         15.23049       57.16463       39.22832
N         15.95005       54.18643       43.30484
C         15.66295       53.72454       44.66008
C         14.98302       54.86239       45.41128
O         15.52712       55.95819       45.42680
C         16.98325       53.31340       45.38295
C         17.73969       52.22849       44.56893
C         16.67039       52.80047       46.80758
C         19.10517       51.86011       45.15619
H         16.49964       55.05378       43.20697
H         15.00787       52.82462       44.64602
H         17.63803       54.20996       45.45982
H         17.93527       52.61163       43.54525
H         17.11784       51.31002       44.48187
H         16.03834       51.88726       46.76199
H         17.59439       52.56508       47.37041
H         16.13908       53.56974       47.40179
H         19.74499       52.76492       45.23511
H         19.01108       51.38665       46.15362
H         19.60839       51.12922       44.48895
N         13.83368       54.65872       46.11713
C         13.19982       55.70573       46.92078
C         13.45028       55.46055       48.39193
O         14.00191       54.43024       48.75162
C         11.67585       55.78621       46.64492
C         11.36582       56.20971       45.20879
O         11.03650       54.57319       46.96503
H         13.44791       53.70770       46.15665
H         13.65910       56.69311       46.69715
H         11.23029       56.56965       47.29443
H         11.17753       53.93665       46.21775
H         10.26502       56.26240       45.06497
H         11.79929       57.21144       45.00593
H         11.79085       55.47590       44.49718
N         13.09572       56.40698       49.30968
C         13.30638       56.21576       50.74120
C         12.43949       55.08385       51.27555
O         12.75285       54.56016       52.33582
C         13.07550       57.52164       51.53455
C         14.09409       58.59916       51.12513
O         11.76555       57.98113       51.31865
H         12.68799       57.29110       48.97115
H         14.37084       55.91944       50.88501
H         13.22266       57.30171       52.61710
H         11.61247       58.72773       51.95470
H         13.99942       58.86458       50.05163
H         13.93759       59.51966       51.72546
H         15.12803       58.23678       51.31106
N         11.35312       54.63007       50.58301
C         10.62580       53.42387       50.95368
C         11.55260       52.24001       50.75543
O         11.76061       51.45648       51.67058
C          9.37859       53.24788       50.04164
C          8.57751       51.96949       50.36906
C          7.46215       51.67066       49.35336
C          6.34639       52.72379       49.31900
N          5.32000       52.35132       48.34408
H         11.05470       55.12980       49.73240
H         10.27288       53.49612       52.00659
H          9.69793       53.19963       48.97870
H          8.72258       54.13616       50.15608
H          8.16096       52.03504       51.39749
H          9.25941       51.09357       50.32944
H          7.00855       50.69196       49.62470
H          7.91210       51.57042       48.34086
H          6.76123       53.71512       49.03874
H          5.88422       52.80363       50.32776
H          4.90274       51.42470       48.59245
H          4.56418       53.07348       48.34560
H          5.73713       52.30157       47.38577
N         12.10906       52.05086       49.52705
C         12.88969       50.88318       49.14354
C         14.25195       50.83581       49.82657
O         14.93835       49.83627       49.66405
C         13.04397       50.85183       47.59860
C         11.66037       50.83741       46.90461
C         11.71524       50.87851       45.40749
O         12.33590       51.87799       44.75028
O         11.08819       50.05326       44.77228
H         11.90926       52.76122       48.81093
H         12.31639       49.97550       49.43822
H         13.61381       49.95228       47.29609
H         13.61845       51.74404       47.27802
H         11.06109       51.71751       47.19265
H         11.09959       49.93359       47.23060
N         14.71664       51.86582       50.59559
C         15.99566       51.84663       51.27600
H         16.62682       52.67693       50.89565
H         15.83093       51.99341       52.36448
H         16.54208       50.89155       51.13180
H         14.15786       52.72010       50.71256
Ca        12.27889       51.89352       42.47351
O          9.78374       53.14803       43.90981
H          9.32686       52.43134       44.41750
H          9.11258       53.87174       43.84073
O         11.37853       55.29215       42.04228
H         11.86797       54.44657       41.88760
H         10.44357       55.09108       41.79011

Ca 1.0



