%chk=holoCaM-CaMKII.loop3.water2.frame271.chk
%nprocshared=20
%mem=10GB
%nosave
#b3lyp/svp scf=(tight,noincore,xqc) Test 
#IOP(5/87=12) Density=Current Pop=(MK,readradii) iop(6/33=2) iop(6/42=6)

holoCaM-CaMKII.loop3.water2.frame271 

   0  1 
C         55.30911       26.93662       61.26047
C         55.71377       25.65274       61.91855
O         56.58120       25.66708       62.77921
H         54.23301       27.12601       61.45661
H         55.90267       27.78862       61.65429
H         55.47191       26.86173       60.16457
N         55.13110       24.48716       61.52852
C         55.44376       23.18669       62.09938
C         56.23583       22.38405       61.08490
O         55.82663       22.28329       59.93690
C         54.14247       22.49177       62.55202
C         54.43556       21.12738       63.09750
O         53.88170       20.14151       62.64642
O         55.36770       20.97840       64.04536
H         54.44555       24.51814       60.75749
H         56.07837       23.29887       63.00604
H         53.42410       22.40640       61.70772
H         53.67802       23.10384       63.35501
N         57.41172       21.80139       61.46091
C         58.32823       21.13286       60.54459
C         57.64794       20.04656       59.73106
O         57.73634       20.09780       58.51212
C         59.53851       20.56294       61.32722
C         60.62281       20.00731       60.38891
C         61.85336       19.51783       61.16790
C         63.00620       19.07907       60.24474
N         62.65767       17.92665       59.41126
H         57.68827       21.86597       62.45372
H         58.72272       21.90126       59.84195
H         59.20155       19.77053       62.03014
H         59.99133       21.38544       61.92501
H         60.93988       20.81796       59.69733
H         60.19823       19.17031       59.79742
H         61.57013       18.68052       61.84261
H         62.23287       20.35462       61.79488
H         63.87770       18.80882       60.88133
H         63.31186       19.93019       59.59594
H         61.89739       18.16943       58.73772
H         63.49856       17.64422       58.85747
H         62.36373       17.12277       60.01181
N         56.95854       19.03589       60.33019
C         56.37417       17.92025       59.58521
C         54.84842       17.93301       59.57908
O         54.26322       16.99230       59.05957
C         56.97176       16.58693       60.09125
C         56.66113       16.21298       61.51622
O         55.95283       16.91100       62.21991
O         57.17433       15.07544       62.02040
H         56.85696       19.05722       61.35543
H         56.66145       17.97918       58.51274
H         58.07704       16.64614       59.98555
H         56.61300       15.76132       59.43998
N         54.13365       18.99850       60.04466
C         52.68455       19.09592       59.92441
C         51.89310       18.10470       60.75825
O         50.68280       18.07022       60.58335
H         54.63507       19.82100       60.40212
H         52.41910       18.95291       58.85400
H         52.35409       20.11674       60.21572
N         52.47021       17.26675       61.67054
C         51.70249       16.24126       62.38070
C         50.61787       16.79775       63.30341
O         49.81774       16.01188       63.79154
C         52.63844       15.28099       63.15189
C         53.26663       15.88822       64.38686
N         53.10101       15.30065       65.59601
O         53.93840       16.90419       64.29811
H         53.48637       17.31226       61.81223
H         51.20386       15.63345       61.59331
H         53.44158       14.93683       62.46447
H         52.05583       14.38308       63.45085
H         52.55090       14.43512       65.69579
H         53.53778       15.70021       66.43795
N         50.54534       18.12451       63.61227
C         49.52744       18.70417       64.47374
C         50.12275       19.26084       65.74564
O         49.41814       19.96747       66.45279
H         51.25453       18.77484       63.24572
H         48.73759       17.97536       64.75787
H         49.04053       19.52590       63.90667
N         51.38956       18.93701       66.13812
C         52.00781       19.42577       67.36179
C         53.30726       20.12784       67.01409
O         53.69374       20.12097       65.85645
C         52.25407       18.24934       68.34104
C         50.96586       17.57656       68.77714
C         50.53519       17.68087       70.11191
C         50.18137       16.83889       67.86895
C         49.33683       17.08644       70.52041
C         48.98250       16.25057       68.27822
C         48.55296       16.37713       69.60537
O         47.39304       15.82237       70.01128
H         51.94618       18.28270       65.56903
H         51.35210       20.16749       67.86744
H         52.76817       18.65324       69.23883
H         52.92875       17.49202       67.89173
H         51.11970       18.23217       70.83773
H         50.48777       16.71172       66.84064
H         49.01409       17.18331       71.54928
H         48.38834       15.69785       67.56107
H         46.81629       15.33514       69.40544
N         54.04864       20.74629       67.97301
C         55.32611       21.39648       67.69208
C         56.17692       21.40559       68.95371
O         55.73053       21.87184       69.99279
C         55.14107       22.79935       67.03532
C         56.52276       23.36982       66.61186
C         54.36021       23.76955       67.93832
C         56.43959       24.69386       65.85416
H         53.70884       20.71700       68.94604
H         55.87124       20.77294       66.94682
H         54.54203       22.65995       66.10818
H         57.01130       22.63455       65.93487
H         57.17930       23.51312       67.49638
H         54.15529       24.72166       67.40720
H         53.37497       23.33448       68.20540
H         54.92387       24.00097       68.86445
H         56.07158       25.51076       66.50738
H         57.44973       24.97653       65.49302
H         55.76879       24.59236       64.97931
N         57.43315       20.88571       68.91557
C         58.31392       20.77773       70.06905
C         59.24241       21.97164       70.13745
O         59.13959       22.85766       69.30677
C         59.10653       19.45754       69.97157
O         59.93527       19.47313       68.83954
H         57.80592       20.59809       68.00452
H         57.71526       20.75648       71.00573
H         58.39152       18.60817       69.89868
H         59.72904       19.32132       70.88193
H         60.46821       18.63678       68.86711
N         60.17054       22.07168       71.12620
C         61.11660       23.17769       71.22017
C         62.04968       23.20414       70.01875
O         62.15208       24.23371       69.36732
C         61.94033       23.05296       72.50597
H         60.20319       21.33062       71.84286
H         60.55670       24.13817       71.28615
H         61.26254       23.06348       73.38652
H         62.52275       22.10738       72.51844
H         62.64029       23.91087       72.59449
N         62.76080       22.09229       69.67299
C         63.71693       22.03820       68.56695
C         63.08338       22.43492       67.25009
O         63.59522       23.32423       66.58449
C         64.29056       20.62056       68.44125
H         62.61199       21.23726       70.23160
H         64.56265       22.72862       68.78117
H         65.03228       20.57826       67.61510
H         64.79819       20.33029       69.38495
H         63.48430       19.88359       68.23310
N         61.94650       21.82194       66.82887
C         61.25098       22.14915       65.58667
C         60.94355       23.63978       65.53195
O         61.30383       24.28025       64.55431
C         59.96994       21.29908       65.48222
C         60.29288       19.79338       65.30414
C         59.02528       19.00365       65.34613
O         58.53060       18.42481       64.24450
O         58.35152       18.99702       66.36040
H         61.53691       21.11327       67.45529
H         61.89187       21.90310       64.71044
H         59.36906       21.62625       64.60389
H         59.35830       21.46999       66.39563
H         60.96092       19.40534       66.09969
H         60.79599       19.65557       64.32297
N         60.35495       24.26731       66.58523
C         60.13068       25.69768       66.65862
H         59.06087       25.90135       66.86170
H         60.72575       26.11525       67.49881
H         60.42685       26.22281       65.72694
H         60.10503       23.71062       67.40448
Ca        56.37441       18.98674       64.21182
O         55.74971       17.79357       67.45771
H         56.30983       17.87267       68.27001
H         55.35777       16.88695       67.51718
O         56.54155       15.79500       65.05029
H         56.19936       14.96868       64.62517
H         57.17684       15.47703       65.73885

Ca 1.0



