%chk=holoCaM.loop1.water2.frame229.chk
%nprocshared=20
%mem=10GB
%nosave
#b3lyp/svp scf=(tight,noincore,xqc) Test 
#IOP(5/87=12) Density=Current Pop=(MK,readradii) iop(6/33=2) iop(6/42=6)

holoCaM.loop1.water2.frame229 

   0  1 
C         50.91087       73.43147       50.69660
C         50.75451       74.77534       51.34031
O         51.75147       75.42011       51.63488
H         51.98419       73.18296       50.55489
H         50.44108       72.65581       51.33610
H         50.41277       73.43821       49.70378
N         49.50844       75.27573       51.56515
C         49.28388       76.59474       52.13910
C         49.77496       76.61286       53.59238
O         49.22151       75.89755       54.41623
C         47.77822       76.95450       52.02565
C         47.52442       78.40478       52.29567
O         46.91881       79.08516       51.48867
O         48.11345       78.98924       53.33904
H         48.69735       74.71052       51.26838
H         49.85266       77.32583       51.51947
H         47.18272       76.31274       52.70717
H         47.43563       76.76039       50.98361
N         50.85301       77.36672       53.95666
C         51.43989       77.35317       55.29946
C         50.52202       77.97571       56.34468
O         50.27330       77.34179       57.36037
C         52.79564       78.10476       55.30058
C         53.54356       77.97840       56.64626
C         54.90428       78.69758       56.66255
C         54.77802       80.22833       56.57012
N         56.09069       80.86791       56.65916
H         51.32371       77.91577       53.22233
H         51.67013       76.29787       55.57405
H         52.61765       79.16924       55.06579
H         53.44606       77.67095       54.50874
H         53.72763       76.89848       56.83870
H         52.92581       78.37513       57.48041
H         55.54309       78.31391       55.83736
H         55.40324       78.45337       57.62648
H         54.13915       80.59361       57.40529
H         54.30416       80.52260       55.61051
H         56.54989       80.62779       57.56788
H         56.69591       80.55810       55.86441
H         55.96970       81.90538       56.60770
N         50.03079       79.23915       56.18070
C         49.33472       79.98865       57.23019
C         47.82266       80.08544       57.02028
O         47.16735       80.79219       57.77294
C         50.02532       81.36422       57.41617
C         49.90213       82.33257       56.26548
O         49.23074       82.07332       55.28152
O         50.52927       83.52194       56.33853
H         50.20769       79.71077       55.28452
H         49.45223       79.46578       58.20406
H         51.10724       81.17991       57.59962
H         49.61038       81.86568       58.31600
N         47.18853       79.30947       56.09935
C         45.74359       79.21476       55.95529
C         45.06608       80.47760       55.47126
O         44.17598       80.96636       56.15208
H         47.74811       78.65496       55.54557
H         45.30727       78.89494       56.92568
H         45.51677       78.42176       55.20901
N         45.39525       81.02293       54.26870
C         44.68875       82.14903       53.65764
C         44.13982       81.78583       52.27285
O         43.67269       82.67469       51.57312
C         45.59353       83.40211       53.63800
C         46.88679       83.30334       52.87894
O         47.70711       84.36972       52.85627
O         47.21486       82.28410       52.29796
H         46.17249       80.59869       53.74613
H         43.81069       82.44887       54.27181
H         45.84537       83.65431       54.69061
H         45.01320       84.25390       53.21988
N         44.10514       80.49106       51.83241
C         43.56859       80.08152       50.54254
C         44.47412       80.37698       49.35725
O         44.11465       79.97090       48.26316
H         44.40246       79.73319       52.46254
H         42.55625       80.51843       50.39091
H         43.44995       78.97576       50.55905
N         45.65328       81.05760       49.48226
C         46.56837       81.30343       48.36368
C         47.99024       80.83720       48.68228
O         48.30015       80.53025       49.81933
C         46.56063       82.81279       47.97856
C         45.23356       83.19281       47.32385
O         46.76335       83.67478       49.07483
H         45.91381       81.42834       50.39907
H         46.24889       80.71573       47.47555
H         47.35693       83.00019       47.22589
H         47.18177       83.17673       49.81752
H         44.38599       83.03896       48.02404
H         45.25992       84.26307       47.02719
H         45.07036       82.58283       46.40989
N         48.90099       80.72650       47.66826
C         50.27747       80.25717       47.83884
C         51.23156       81.28607       47.22421
O         50.99860       81.72580       46.10958
C         50.44949       78.84711       47.19225
C         49.46709       77.83631       47.85390
C         51.90217       78.36027       47.35756
C         49.57306       76.40490       47.31953
H         48.58560       80.93497       46.71042
H         50.52291       80.12697       48.91498
H         50.22688       78.91458       46.10499
H         48.42527       78.17689       47.67592
H         49.63695       77.80455       48.95323
H         52.61516       79.07760       46.90637
H         52.14008       78.22757       48.43227
H         52.07145       77.39725       46.83753
H         50.55676       75.95324       47.56355
H         48.79961       75.77258       47.80458
H         49.41612       76.38697       46.22107
N         52.35964       81.66816       47.89341
C         53.32410       82.66104       47.40997
C         54.65952       81.98874       47.11951
O         54.75208       80.78098       47.21896
C         53.51899       83.77583       48.48275
C         52.20771       84.45029       48.88009
O         54.18997       83.29058       49.62233
H         52.56920       81.20816       48.78314
H         52.96369       83.13890       46.47392
H         54.15280       84.57930       48.05458
H         53.56474       82.72533       50.14138
H         51.69969       84.87931       47.99159
H         51.55328       83.69911       49.35290
H         52.40420       85.26120       49.61398
N         55.76038       82.72613       46.79741
C         57.10222       82.14824       46.69673
C         57.50527       81.48988       48.00953
O         58.05324       80.39564       47.98307
C         58.15564       83.23159       46.35006
C         57.95293       83.80054       44.94413
O         58.11679       84.27166       47.29621
H         55.65393       83.74289       46.68815
H         57.13391       81.38248       45.88935
H         59.15746       82.73668       46.36523
H         59.03664       84.63711       47.37089
H         56.96887       84.30258       44.84734
H         58.75125       84.54068       44.72456
H         58.01853       82.98436       44.19320
N         57.26750       82.11514       49.19839
C         57.72931       81.61358       50.49432
C         57.13647       80.25761       50.87897
O         57.53622       79.71996       51.90236
C         57.38464       82.60765       51.64525
C         57.70026       84.09616       51.39513
C         59.14612       84.36855       50.97448
C         59.32373       85.85862       50.65010
N         60.68862       86.14381       50.21492
H         56.77012       83.01114       49.15450
H         58.83448       81.51234       50.42839
H         57.91684       82.27454       52.56369
H         56.29223       82.56091       51.85405
H         57.46705       84.66426       52.32242
H         57.02033       84.49534       50.61636
H         59.38435       83.78873       50.05781
H         59.83749       84.06086       51.78822
H         59.08365       86.47195       51.54674
H         58.61935       86.14209       49.83456
H         60.91792       85.58324       49.36193
H         60.76497       87.16005       49.98092
H         61.36254       85.91766       50.98145
N         56.13299       79.68427       50.15632
C         55.40843       78.49118       50.56604
C         55.53044       77.42265       49.49055
O         56.02511       76.34181       49.77884
C         53.94073       78.89713       50.81163
C         53.83458       80.01941       51.86825
C         52.43056       80.52177       51.98294
O         51.84071       80.94262       51.00495
O         51.79233       80.50014       53.15511
H         55.78333       80.15826       49.32000
H         55.81164       78.07947       51.51788
H         53.33801       78.01545       51.12326
H         53.52588       79.28764       49.86122
H         54.45654       80.88649       51.57228
H         54.19303       79.64518       52.85183
N         55.11703       77.66487       48.21628
C         55.24392       76.70276       47.14420
H         54.85471       77.14192       46.19898
H         56.31241       76.44107       46.99240
H         54.65856       75.78964       47.37736
H         54.70309       78.57196       47.98847
Ca        49.57845       80.61129       52.94225
O         49.47074       83.74550       50.69069
H         49.35895       83.67190       49.70984
H         49.68611       84.69989       50.84096
O         51.61630       83.66858       52.71513
H         51.31875       83.20353       53.53663
H         52.26330       84.34668       53.03285

Ca 1.0



