%chk=holoCaM.loop3.water3.frame305.chk
%nprocshared=20
%mem=10GB
%nosave
#b3lyp/svp scf=(tight,noincore,xqc) Test 
#IOP(5/87=12) Density=Current Pop=(MK,readradii) iop(6/33=2) iop(6/42=6)

holoCaM.loop3.water3.frame305 

   0  1 
C         10.98418       53.44696       74.57549
C         10.59953       54.65838       75.36628
O          9.41802       54.84725       75.62367
H         11.66273       52.81158       75.18315
H         10.08349       52.84962       74.31444
H         11.49817       53.75390       73.64264
N         11.55713       55.51509       75.82468
C         11.21788       56.64337       76.67667
C         10.40159       57.67076       75.91264
O         10.87729       58.20864       74.92228
C         12.46762       57.29216       77.30628
C         12.08626       58.17896       78.46892
O         12.94140       58.72260       79.13333
O         10.80538       58.24888       78.85980
H         12.54764       55.30930       75.62240
H         10.62569       56.22140       77.51273
H         13.05106       57.84173       76.53854
H         13.11512       56.49167       77.72604
N          9.13564       57.95768       76.31479
C          8.23533       58.84454       75.58908
C          8.68610       60.30302       75.61176
O          8.25790       61.03825       74.73337
C          6.78970       58.66829       76.11311
C          6.30348       57.22155       75.84681
C          4.95245       56.86074       76.47321
C          3.78600       57.71213       75.96381
N          2.51953       57.21378       76.50107
H          8.77805       57.46031       77.13732
H          8.24076       58.52210       74.52330
H          6.10935       59.37607       75.59369
H          6.76885       58.89079       77.20313
H          7.02296       56.48857       76.26538
H          6.26040       57.05293       74.74859
H          5.01870       56.94216       77.57914
H          4.75099       55.79631       76.21840
H          3.74997       57.67047       74.85292
H          3.92907       58.76873       76.27783
H          1.73930       57.82265       76.16542
H          2.35098       56.23652       76.16648
H          2.53790       57.22635       77.54690
N          9.54167       60.79639       76.55876
C         10.09070       62.15724       76.51431
C         11.62374       62.16739       76.52522
O         12.19309       63.25028       76.48565
C          9.50444       63.04827       77.63565
C          9.80049       62.63069       79.04587
O         10.41163       61.60640       79.28731
O          9.37004       63.40147       80.06244
H          9.81763       60.18345       77.33756
H          9.78795       62.65721       75.56829
H          8.40083       63.09807       77.51690
H          9.90121       64.07902       77.50134
N         12.36452       61.01817       76.53164
C         13.81865       61.00246       76.45545
C         14.54239       61.48037       77.70271
O         15.76242       61.54163       77.65166
H         11.89281       60.10766       76.50303
H         14.13344       61.61297       75.58110
H         14.16093       59.96183       76.27296
N         13.89443       61.82572       78.85463
C         14.60367       62.34109       80.02991
C         15.54162       61.32306       80.69330
O         16.26955       61.71883       81.59475
C         13.60289       62.93083       81.05413
C         12.80442       61.89423       81.81403
N         12.78396       61.90058       83.16706
O         12.16061       61.05197       81.21162
H         12.86970       61.78380       78.87537
H         15.21534       63.19868       79.66980
H         12.90511       63.60673       80.51178
H         14.16019       63.55860       81.78280
H         13.30357       62.61059       83.70305
H         12.22869       61.20337       83.68384
N         15.57393       60.00725       80.32177
C         16.47486       59.00956       80.87759
C         15.77949       57.89905       81.65693
O         16.48055       57.00278       82.09685
H         14.95183       59.68183       79.58123
H         17.20857       59.47561       81.57094
H         17.04831       58.56311       80.03738
N         14.44373       57.93437       81.95941
C         13.82622       57.02898       82.93773
C         12.48594       56.49823       82.45920
O         11.63976       57.29625       82.10380
C         13.62747       57.84242       84.23271
C         14.97857       58.21735       84.79129
C         15.46010       59.53315       84.69582
C         15.78829       57.22880       85.37498
C         16.73927       59.84899       85.16516
C         17.05906       57.54911       85.85546
C         17.54206       58.86048       85.74644
O         18.77405       59.17909       86.19136
H         13.88225       58.73364       81.63646
H         14.48243       56.16457       83.17557
H         13.06393       57.27194       85.00315
H         13.03544       58.75190       83.98641
H         14.86044       60.30628       84.23364
H         15.43323       56.20862       85.45656
H         17.11008       60.86152       85.06939
H         17.66899       56.77510       86.30403
H         19.36021       58.52203       86.59369
N         12.20313       55.15681       82.48770
C         10.89800       54.60577       82.11005
C         10.21643       53.92987       83.29830
O         10.70452       52.93215       83.80511
C         11.00263       53.64110       80.88508
C         12.05372       52.50864       81.06848
C         11.28918       54.46599       79.62272
C         12.03284       51.46367       79.95110
H         12.92697       54.50627       82.82270
H         10.21568       55.42653       81.80062
H          9.99887       53.17823       80.74577
H         11.85875       51.95049       82.00235
H         13.07550       52.94044       81.13095
H         11.25210       53.84247       78.70743
H         10.50149       55.23885       79.51387
H         12.27863       54.96488       79.68793
H         12.29489       51.90360       78.96894
H         12.78323       50.67552       80.17440
H         11.03059       50.98839       79.89087
N          9.04681       54.43989       83.78812
C          8.26338       53.79133       84.84016
C          7.57396       52.53832       84.30736
O          7.71871       52.22737       83.13589
C          7.20061       54.77469       85.37730
O          6.27769       55.12309       84.37765
H          8.69666       55.32441       83.39142
H          8.93006       53.53542       85.69276
H          7.70635       55.67855       85.79091
H          6.64058       54.33074       86.22613
H          6.49793       56.04232       84.07613
N          6.75780       51.79636       85.10896
C          5.94429       50.68411       84.61923
C          4.96216       51.16552       83.56516
O          4.87174       50.55317       82.51079
C          5.15702       50.05089       85.77180
H          6.67490       52.06178       86.10212
H          6.59753       49.88906       84.19379
H          4.47717       50.79120       86.24524
H          4.54913       49.19981       85.39360
H          5.85781       49.66198       86.54012
N          4.21971       52.29032       83.78371
C          3.25387       52.83608       82.83328
C          3.85908       52.99849       81.45703
O          3.29689       52.48698       80.49821
C          2.74201       54.19708       83.32873
H          4.37532       52.80297       84.66563
H          2.38405       52.14684       82.75757
H          3.57886       54.92329       83.42366
H          1.99583       54.61217       82.61777
H          2.25859       54.08737       84.32205
N          5.02260       53.68056       81.29119
C          5.65511       53.86573       79.99310
C          5.95732       52.52725       79.33895
O          5.46472       52.28815       78.24499
C          6.92521       54.72539       80.13142
C          6.56670       56.16316       80.56833
C          7.75675       57.05765       80.49389
O          8.13684       57.85509       81.51200
O          8.37605       57.11202       79.44828
H          5.47728       54.07044       82.12929
H          4.95589       54.41641       79.32265
H          7.40502       54.77193       79.12757
H          7.65014       54.26691       80.84068
H          6.12526       56.19797       81.58462
H          5.82429       56.56781       79.84922
N          6.72860       51.59620       79.96286
C          7.00744       50.28460       79.41238
H          8.10454       50.14763       79.32004
H          6.60481       49.50833       80.09743
H          6.54751       50.13565       78.41276
H          7.12059       51.81209       80.88452
Ca         9.96365       58.96373       80.81441
O          8.76324       61.69005       82.63882
H          9.46087       61.50198       81.96298
H          9.25288       62.12629       83.38042
O          7.32592       60.27765       79.65837
H          7.39654       61.24741       79.47647
H          6.81151       60.22281       80.50247
O         10.18468       59.18226       83.90988
H         10.39046       58.35064       84.40601
H         10.11892       59.87976       84.60899

Ca 1.0



