%chk=holoCaM-CaMKII.loop4.water2.frame115.chk
%nprocshared=20
%mem=10GB
%nosave
#b3lyp/svp scf=(tight,noincore,xqc) Test 
#IOP(5/87=12) Density=Current Pop=(MK,readradii) iop(6/33=2) iop(6/42=6)

holoCaM-CaMKII.loop4.water2.frame115 

   -3  1 
C         46.73932       25.74583       69.49125
C         47.29631       25.05821       70.70320
O         47.87162       25.72870       71.54501
H         46.00048       26.51148       69.80829
H         47.56077       26.23949       68.93166
H         46.23148       25.02757       68.81351
N         47.14218       23.71531       70.86785
C         47.62950       22.98457       72.03575
C         49.16390       23.03520       72.07039
O         49.82120       22.40885       71.25141
C         47.08652       21.54807       71.94769
C         47.36625       20.58047       73.05721
O         47.18821       19.40217       72.80731
O         47.69197       20.91262       74.32480
H         46.62056       23.20159       70.13996
H         47.19353       23.46631       72.93939
H         47.51361       21.10659       71.02021
H         45.98160       21.57055       71.81433
N         49.77713       23.87343       72.94724
C         51.21628       24.14163       73.02623
C         51.96183       22.94968       73.60804
O         52.89468       22.47731       72.97349
C         51.48449       25.44521       73.86604
C         50.80758       26.66735       73.17168
C         52.98913       25.70940       74.06858
C         50.87805       27.98085       73.95252
H         49.14850       24.42361       73.52887
H         51.60796       24.35239       72.00492
H         51.06512       25.30894       74.87879
H         49.73056       26.47078       73.03087
H         51.25597       26.82207       72.16589
H         53.49889       25.87201       73.09700
H         53.14813       26.59598       74.71660
H         53.47043       24.86161       74.59844
H         50.32031       28.76366       73.39339
H         50.40692       27.86243       74.95024
H         51.92041       28.33611       74.06865
N         51.62545       22.43312       74.82611
C         52.40305       21.38428       75.49307
C         51.87544       19.97661       75.23593
O         52.47472       19.03299       75.73372
C         52.54631       21.69352       77.00168
C         51.25962       21.65571       77.78396
O         50.19644       21.39892       77.24362
O         51.28682       21.89909       79.10767
H         50.80198       22.82542       75.30563
H         53.43920       21.38974       75.08706
H         53.00109       22.70096       77.11957
H         53.23896       20.95272       77.45711
N         50.81311       19.74510       74.41687
C         50.38401       18.41063       74.03476
C         49.76241       17.61504       75.16097
O         50.20990       16.50915       75.42745
H         50.33397       20.53795       73.96757
H         51.24003       17.86071       73.58492
H         49.60889       18.50515       73.24625
N         48.66055       18.09241       75.80173
C         47.83925       17.32289       76.72982
C         46.42213       17.16260       76.16232
O         45.50879       16.83072       76.90530
C         47.85915       17.97369       78.12998
C         47.33599       19.38117       78.17637
O         48.12286       20.37375       78.62696
O         46.18546       19.62620       77.85915
H         48.33567       19.03633       75.56914
H         48.24419       16.29687       76.87162
H         48.90822       17.97070       78.49935
H         47.25725       17.35311       78.82822
N         46.19105       17.30475       74.82282
C         44.90300       17.11792       74.17370
C         43.89435       18.23256       74.38333
O         42.83066       18.13076       73.78844
H         46.99024       17.46339       74.19781
H         44.47034       16.13940       74.47340
H         45.07959       17.08262       73.07587
N         44.12369       19.31515       75.18374
C         43.14746       20.39148       75.35759
C         43.75365       21.75367       75.07860
O         44.95171       21.87462       74.88370
C         42.58576       20.36051       76.79644
C         41.67985       19.13993       77.01041
C         41.11735       19.10409       78.40645
N         41.92901       18.92340       79.47362
O         39.91266       19.22241       78.57527
H         45.00497       19.37914       75.70686
H         42.30009       20.27842       74.64630
H         41.95912       21.25993       76.98406
H         43.42707       20.37551       77.52354
H         42.23074       18.19523       76.82178
H         40.83988       19.20847       76.28275
H         42.94431       18.80131       79.34849
H         41.53829       18.88759       80.42684
N         42.93266       22.83904       75.05188
C         43.36776       24.22224       74.91855
C         42.84990       24.95181       76.14359
O         41.64290       24.95265       76.34969
C         42.79534       24.82660       73.60243
C         43.06501       26.33733       73.48510
C         43.39520       24.11396       72.37826
H         41.91814       22.67829       75.15563
H         44.47809       24.29976       74.88300
H         41.69154       24.68195       73.58727
H         42.63002       26.72803       72.53915
H         42.58274       26.88985       74.31861
H         44.15462       26.55073       73.49336
H         44.49725       24.25804       72.34460
H         43.17995       23.02566       72.40722
H         42.95823       24.52183       71.44140
N         43.69492       25.59693       77.00078
C         43.21610       26.29170       78.19503
C         43.29910       27.79306       77.96840
O         43.64186       28.19539       76.86591
C         43.93494       25.74561       79.45814
C         45.28068       26.35644       79.75850
N         46.42408       25.64399       79.70134
O         45.33049       27.51652       80.11783
H         44.70344       25.62615       76.78760
H         42.14032       26.06236       78.35191
H         44.00742       24.64044       79.36224
H         43.30628       25.94137       80.35372
H         46.42115       24.65908       79.41194
H         47.32024       26.09651       79.94179
N         42.94036       28.68770       78.93122
C         42.93115       30.12895       78.68578
C         44.32036       30.68022       78.38087
O         44.46821       31.39994       77.40511
C         42.33959       30.90477       79.87471
C         42.14314       32.34428       79.45810
C         41.20648       32.65828       78.45546
C         42.91449       33.37075       80.02237
C         41.05132       33.97307       78.01804
C         42.76043       34.68852       79.57830
C         41.82932       34.99233       78.57228
O         41.67716       36.25522       78.12722
H         42.62119       28.32949       79.84422
H         42.26821       30.30445       77.81007
H         43.02704       30.81489       80.74488
H         41.35435       30.48491       80.17118
H         40.60010       31.88199       78.00433
H         43.64957       33.14854       80.78574
H         40.33114       34.19579       77.24044
H         43.37140       35.47048       80.00955
H         42.20256       36.98945       78.47438
N         45.38390       30.38278       79.17994
C         46.75363       30.84260       78.93363
C         47.31368       30.40897       77.57832
O         48.41645       30.83787       77.26446
C         47.71271       30.31874       80.03393
C         47.38478       30.86531       81.43417
C         48.31132       30.33891       82.50055
O         48.14897       30.74815       83.77269
O         49.20118       29.54407       82.23683
H         45.19841       29.80457       80.00467
H         46.75668       31.95451       78.94706
H         48.75495       30.63042       79.79631
H         47.67962       29.20523       80.04110
H         46.35165       30.59310       81.72773
H         47.46688       31.97292       81.41198
N         46.63748       29.58682       76.72134
C         47.16303       29.17580       75.42746
C         46.34103       29.72418       74.26698
O         46.81770       29.66941       73.14150
C         47.20788       27.64613       75.34463
C         47.77894       27.00201       76.62034
C         47.98393       25.55705       76.35999
O         48.84967       25.23285       75.58372
O         47.20289       24.60198       76.87361
H         45.73575       29.20121       76.99555
H         48.19700       29.56709       75.31164
H         47.79532       27.37026       74.44051
H         46.17565       27.24328       75.21666
H         47.05656       27.14207       77.45095
H         48.75516       27.44747       76.90729
N         45.09615       30.25005       74.44905
C         44.31749       30.81617       73.37199
H         43.32961       31.14848       73.76052
H         44.84475       31.69939       72.95454
H         44.15083       30.06007       72.57730
H         44.65973       30.24148       75.37363
Ca        47.47497       22.72544       75.65087
O         48.88389       23.64252       79.63603
H         48.71567       23.15887       78.78907
H         49.21185       24.53176       79.34982
O         45.36357       22.24339       78.93830
H         45.89816       21.76630       79.62160
H         44.42547       22.11838       79.22830

Ca 1.0



