%chk=holoCaM-CaMKII.loop4.water1.frame477.chk
%nprocshared=20
%mem=10GB
%nosave
#b3lyp/svp scf=(tight,noincore,xqc) Test 
#IOP(5/87=12) Density=Current Pop=(MK,readradii) iop(6/33=2) iop(6/42=6)

holoCaM-CaMKII.loop4.water1.frame477 

   -3  1 
C         83.85070       60.13424       63.92886
C         84.04131       59.25105       62.73446
O         83.11395       59.08082       61.95740
H         82.81074       60.52073       63.97345
H         84.06597       59.56443       64.85705
H         84.55024       60.99389       63.85873
N         85.23486       58.63065       62.54214
C         85.53203       57.79464       61.39081
C         85.52301       56.33932       61.81779
O         86.16860       55.99123       62.79670
C         86.89877       58.19784       60.82054
C         87.23972       57.49468       59.54112
O         88.34055       57.66669       59.05734
O         86.35428       56.70217       58.90724
H         85.96830       58.74420       63.25992
H         84.77228       57.95209       60.59095
H         87.68328       57.97177       61.57542
H         86.91672       59.28942       60.61058
N         84.80495       55.43213       61.10161
C         84.63712       54.03378       61.47342
C         85.43682       53.13012       60.53765
O         86.11958       52.24740       61.03871
C         83.11765       53.66620       61.49768
C         82.33458       54.65694       62.40719
C         82.92579       52.20901       61.96191
C         80.83201       54.37647       62.51010
H         84.33491       55.75775       60.24835
H         85.02234       53.86112       62.50417
H         82.70788       53.74442       60.46953
H         82.44162       55.68289       61.99254
H         82.76145       54.65211       63.43314
H         81.85910       51.91098       61.91331
H         83.46991       51.50789       61.29642
H         83.29307       52.07917       63.00192
H         80.34758       55.17768       63.10786
H         80.36311       54.35225       61.50752
H         80.63609       53.41481       63.02538
N         85.43392       53.30180       59.18183
C         86.12965       52.40267       58.25581
C         87.49437       52.92293       57.79220
O         88.12514       52.25678       56.98309
C         85.18909       52.01259       57.09285
C         84.79708       53.13731       56.16907
O         84.03862       52.90757       55.24102
O         85.27424       54.38527       56.33521
H         84.92642       54.10525       58.79010
H         86.36196       51.44719       58.77578
H         84.26293       51.57644       57.52830
H         85.67842       51.22474       56.48007
N         88.06490       54.03336       58.34010
C         89.43590       54.45473       58.07558
C         89.67082       54.97551       56.67413
O         90.55188       54.47950       55.98735
H         87.55296       54.55227       59.06452
H         90.13139       53.61866       58.30720
H         89.68248       55.28831       58.76792
N         88.93852       56.02360       56.21517
C         89.15267       56.70881       54.93747
C         89.35504       58.21886       55.13204
O         89.39535       58.94172       54.14607
C         87.99526       56.39023       53.96212
C         86.60975       56.71608       54.44940
O         85.64787       56.42783       53.75621
O         86.41269       57.26704       55.65854
H         88.18926       56.36162       56.83085
H         90.06802       56.32838       54.43173
H         88.02298       55.29629       53.76399
H         88.17583       56.90943       52.99524
N         89.55316       58.75696       56.37109
C         89.80055       60.16635       56.63627
C         88.59684       61.08188       56.50237
O         88.76494       62.25815       56.79180
H         89.63324       58.12889       57.17537
H         90.63531       60.52731       55.99850
H         90.12597       60.25881       57.69657
N         87.36504       60.64941       56.10158
C         86.19418       61.52760       56.03781
C         85.08266       61.00281       56.92291
O         85.21301       59.91195       57.46168
C         85.78148       61.76423       54.55847
C         85.52971       60.53116       53.65844
C         84.20392       59.83712       53.86379
N         83.31944       59.72696       52.84312
O         83.92910       59.34426       54.94169
H         87.23907       59.66389       55.84186
H         86.44540       62.52954       56.44879
H         86.65199       62.28780       54.10574
H         84.91770       62.46105       54.49139
H         86.36173       59.80475       53.75638
H         85.55445       60.89418       52.60809
H         83.52817       60.11545       51.91173
H         82.42342       59.23524       52.97863
N         83.96304       61.75238       57.14858
C         82.83671       61.26947       57.93835
C         81.60424       61.30667       57.05601
O         81.13292       62.38566       56.72246
C         82.64439       62.10702       59.23745
C         81.48970       61.55688       60.09462
C         83.92716       62.12104       60.08386
H         83.90029       62.69533       56.73507
H         83.02087       60.21858       58.25487
H         82.40752       63.15931       58.96549
H         80.53348       61.59214       59.53987
H         81.68560       60.50646       60.39194
H         81.36249       62.16556       61.01567
H         84.76451       62.57772       59.51666
H         83.77373       62.72857       61.00230
H         84.21666       61.09138       60.38201
N         81.04844       60.14715       56.61161
C         79.84322       60.08762       55.79143
C         78.65378       60.55285       56.62654
O         78.83133       60.77907       57.81061
C         79.65665       58.62120       55.31897
C         78.61304       58.42180       54.25448
N         78.77049       58.97134       53.02799
O         77.63952       57.72088       54.48369
H         81.51699       59.27102       56.85463
H         79.99653       60.74451       54.90756
H         79.43041       57.98798       56.20465
H         80.61214       58.25511       54.88341
H         79.60423       59.53492       52.80619
H         78.07065       58.81010       52.28882
N         77.41015       60.72571       56.10471
C         76.26724       61.06735       56.95404
C         75.95629       59.91203       57.89628
O         75.80831       60.13361       59.08958
C         75.03585       61.42330       56.10106
C         73.84234       61.80440       56.95598
C         73.91916       62.86429       57.88163
C         72.63551       61.09673       56.83261
C         72.81418       63.19788       58.67098
C         71.52936       61.43894       57.61637
C         71.61613       62.48971       58.54046
O         70.55759       62.82773       59.30426
H         77.27126       60.60615       55.09053
H         76.51574       61.97609       57.54526
H         74.78393       60.56699       55.43815
H         75.29434       62.29061       55.45556
H         74.83201       63.43263       58.00249
H         72.54764       60.28094       56.12663
H         72.88918       64.00952       59.38454
H         70.60581       60.88560       57.50465
H         69.70891       62.36674       59.24055
N         75.90588       58.63891       57.41198
C         75.67425       57.43951       58.21683
C         76.56830       57.42007       59.44360
O         76.06470       57.27616       60.54906
C         75.94168       56.19468       57.33139
C         75.71896       54.85500       58.04794
C         75.99791       53.70714       57.11701
O         76.97077       52.82198       57.40761
O         75.34484       53.56967       56.09446
H         76.09815       58.51450       56.40712
H         74.61415       57.42146       58.55370
H         76.99228       56.22610       56.96248
H         75.26676       56.24227       56.44849
H         74.67037       54.78610       58.40666
H         76.40142       54.77759       58.92179
N         77.91051       57.57182       59.31160
C         78.84337       57.54157       60.43409
C         78.51345       58.65771       61.41470
O         78.29829       58.37781       62.58580
C         80.30252       57.60557       59.91798
C         80.58840       56.39654       58.99372
C         81.98296       56.35298       58.46304
O         82.64898       55.34005       58.56935
O         82.47143       57.39590       57.78093
H         78.27119       57.72874       58.36064
H         78.74525       56.56930       60.96794
H         80.99737       57.57511       60.78566
H         80.47188       58.55521       59.36289
H         79.93412       56.42895       58.10362
H         80.37527       55.45024       59.52902
N         78.38440       59.94075       60.98636
C         77.97660       61.02634       61.85135
H         76.98319       60.80298       62.29756
H         78.72483       61.18040       62.65509
H         77.88485       61.96385       61.25996
H         78.53567       60.14760       59.99779
Ca        84.41352       57.28122       56.67386
O         82.52938       56.15800       54.47203
H         81.60643       55.80417       54.52434
H         83.10537       55.36891       54.62951

Ca 1.0



