%chk=holoCaM-CaMKII.loop3.water2.frame366.chk
%nprocshared=20
%mem=10GB
%nosave
#b3lyp/svp scf=(tight,noincore,xqc) Test 
#IOP(5/87=12) Density=Current Pop=(MK,readradii) iop(6/33=2) iop(6/42=6)

holoCaM-CaMKII.loop3.water2.frame366 

   0  1 
C         63.65717       76.02878       21.77691
C         64.24516       76.54275       20.50052
O         64.90206       77.57429       20.51344
H         62.55325       75.96807       21.67551
H         64.06230       75.01703       21.98824
H         63.90557       76.70252       22.62388
N         64.04860       75.85454       19.34336
C         64.59782       76.28731       18.06623
C         63.99102       77.63238       17.69173
O         62.78971       77.70324       17.46882
C         64.29885       75.21358       17.00532
C         64.94764       75.44918       15.68190
O         64.73128       74.65914       14.78460
O         65.77240       76.49101       15.46772
H         63.50282       74.97895       19.38723
H         65.70243       76.36723       18.18177
H         63.19819       75.13806       16.86146
H         64.66839       74.23014       17.37066
N         64.75490       78.76151       17.70093
C         64.18161       80.09538       17.53554
C         63.75371       80.37342       16.09172
O         63.00809       81.31545       15.86638
C         65.20643       81.15228       18.02039
C         64.58123       82.53345       18.28351
C         65.59441       83.56429       18.80976
C         66.60637       84.00097       17.73792
N         67.48779       85.05101       18.24805
H         65.74842       78.67292       17.95554
H         63.29909       80.14368       18.21224
H         66.04374       81.20291       17.29217
H         65.62184       80.81319       18.99625
H         63.80063       82.39888       19.06467
H         64.09536       82.94500       17.37675
H         66.12201       83.16296       19.70379
H         65.02298       84.46457       19.12408
H         66.05138       84.39443       16.85704
H         67.22364       83.13892       17.40781
H         66.92499       85.87922       18.55141
H         68.04852       84.69062       19.05377
H         68.13900       85.35039       17.48662
N         64.27679       79.65263       15.05768
C         64.04278       79.94361       13.64101
C         63.64503       78.71030       12.82832
O         63.47528       78.84682       11.62394
C         65.28802       80.64526       13.04424
C         66.59182       79.90032       13.16706
O         66.65073       78.68917       13.74681
O         67.62103       80.43447       12.78911
H         64.95548       78.92150       15.29015
H         63.21288       80.67648       13.52839
H         65.41465       81.60831       13.58648
H         65.10460       80.88733       11.97458
N         63.42248       77.49274       13.40409
C         62.94598       76.33901       12.65425
C         63.95546       75.69134       11.71727
O         63.54966       74.76296       11.03163
H         63.48543       77.39430       14.42505
H         62.04469       76.64219       12.07649
H         62.62323       75.55251       13.36948
N         65.26452       76.08000       11.61782
C         66.18446       75.44963       10.66224
C         66.46689       73.96707       10.93046
O         67.07867       73.34408       10.07331
C         67.54344       76.18981       10.58303
C         68.38212       76.10006       11.83892
N         69.65523       76.55325       11.83773
O         67.92801       75.60244       12.85566
H         65.59997       76.86712       12.18903
H         65.70784       75.53303        9.65966
H         67.38778       77.25822       10.32168
H         68.12965       75.72481        9.76023
H         70.07107       76.95597       10.98638
H         70.23411       76.47976       12.68721
N         66.10946       73.34852       12.09371
C         66.39317       71.94949       12.37771
C         67.26176       71.71882       13.60477
O         67.53161       70.55517       13.86684
H         65.61124       73.88112       12.80677
H         66.90646       71.46622       11.51956
H         65.42849       71.42030       12.53018
N         67.72086       72.72256       14.41877
C         68.55606       72.45121       15.59662
C         68.64951       73.63133       16.56321
O         68.13650       74.70708       16.28811
C         69.94486       71.89506       15.17762
C         70.75897       72.81273       14.29266
C         71.38489       73.95778       14.81254
C         70.93356       72.49843       12.93295
C         72.17449       74.76831       13.98720
C         71.71059       73.31576       12.10833
C         72.33766       74.44953       12.63100
O         73.09541       75.21940       11.82364
H         67.43250       73.68697       14.22500
H         68.03827       71.66630       16.19196
H         69.77487       70.94526       14.63403
H         70.55500       71.61043       16.06071
H         71.28318       74.20932       15.85909
H         70.46533       71.61995       12.50699
H         72.66472       75.64008       14.40095
H         71.83138       73.06179       11.06263
H         73.55449       76.00859       12.14450
N         69.23516       73.43815       17.78130
C         69.22279       74.40359       18.87642
C         70.65339       74.73954       19.26614
O         71.43214       73.82472       19.49956
C         68.46953       73.78150       20.09774
C         67.03659       73.33301       19.70459
C         68.41871       74.77946       21.27583
C         66.33455       72.52093       20.79740
H         69.65266       72.51640       17.98191
H         68.68353       75.33205       18.58746
H         69.03267       72.87728       20.42148
H         67.08630       72.66569       18.81911
H         66.41940       74.21625       19.43609
H         69.43888       75.06634       21.59098
H         67.86031       75.69722       20.98915
H         67.94148       74.33554       22.17089
H         66.16715       73.11435       21.71729
H         65.34203       72.18685       20.42938
H         66.93688       71.62029       21.04636
N         71.03875       76.03560       19.44932
C         72.36281       76.41232       19.94229
C         72.27961       76.81765       21.40331
O         71.19495       76.83665       21.95861
C         72.94587       77.54229       19.07745
O         72.11520       78.67065       19.13435
H         70.33470       76.77902       19.32990
H         73.05426       75.54319       19.89777
H         73.02921       77.18364       18.02938
H         73.96111       77.81468       19.43864
H         72.46186       79.30955       18.45910
N         73.40555       77.11495       22.10843
C         73.38440       77.48454       23.52167
C         72.61584       78.77445       23.73563
O         71.71260       78.80172       24.55962
C         74.81345       77.64380       24.05022
H         74.31494       77.05449       21.62512
H         72.91356       76.66556       24.11215
H         75.35629       78.44393       23.50451
H         74.79170       77.89475       25.13278
H         75.36672       76.68800       23.92778
N         72.91934       79.88117       23.00088
C         72.24677       81.16959       23.14368
C         70.74299       81.03943       22.99761
O         70.02646       81.51568       23.86714
C         72.78662       82.15755       22.10402
H         73.66232       79.79376       22.28974
H         72.47085       81.58914       24.15020
H         72.30172       83.14913       22.22935
H         73.88211       82.28577       22.23881
H         72.59496       81.78941       21.07311
N         70.19775       80.36594       21.94567
C         68.75746       80.16887       21.77791
C         68.16204       79.53940       23.02687
O         67.25557       80.12126       23.60716
C         68.46533       79.29307       20.53771
C         68.84973       80.00827       19.22817
C         68.61320       79.16580       18.00459
O         68.15994       77.90072       18.10074
O         68.84704       79.63450       16.90268
H         70.84473       79.94061       21.26514
H         68.26281       81.15499       21.62599
H         67.37561       79.07267       20.49432
H         69.01255       78.32975       20.63032
H         69.92138       80.29136       19.23623
H         68.24439       80.93652       19.14039
N         68.65517       78.37694       23.52755
C         68.16317       77.78756       24.75241
H         67.09119       77.52245       24.64485
H         68.74176       76.86840       24.98699
H         68.28997       78.50408       25.59276
H         69.42807       77.91179       23.04391
Ca        68.58044       77.80842       14.48844
O         70.46118       79.47440       12.87071
H         70.16160       79.92365       13.70087
H         71.34506       79.09373       13.10145
O         70.86906       77.21349       16.07515
H         71.40541       76.50428       16.50655
H         71.50181       77.67417       15.46876

Ca 1.0



