%chk=holoCaM-CaMKII.loop1.water2.frame466.chk
%nprocshared=20
%mem=10GB
%nosave
#b3lyp/svp scf=(tight,noincore,xqc) Test 
#IOP(5/87=12) Density=Current Pop=(MK,readradii) iop(6/33=2) iop(6/42=6)

holoCaM-CaMKII.loop1.water2.frame466 

   0  1 
C         67.69956       82.97550       56.39270
C         67.46272       84.30734       55.74237
O         66.64395       84.38168       54.84238
H         68.47796       83.04020       57.18279
H         66.75814       82.61191       56.85341
H         68.04081       82.24751       55.62701
N         68.14943       85.40589       56.15962
C         68.02144       86.74340       55.57979
C         68.49113       86.72701       54.12142
O         69.67962       86.87909       53.87212
C         68.85832       87.70217       56.46047
C         68.97197       89.12252       56.01730
O         68.14909       89.68552       55.12489
O         69.92423       89.77357       56.41314
H         68.80338       85.27640       56.94827
H         66.96934       87.07656       55.62855
H         69.89471       87.30138       56.48415
H         68.48461       87.70313       57.50687
N         67.61212       86.45427       53.10991
C         68.02372       86.30871       51.71588
C         68.42428       87.64677       51.11803
O         69.56041       87.79704       50.69084
C         66.89530       85.69439       50.84178
C         66.42201       84.28311       51.24005
C         67.55110       83.24354       51.23289
C         67.00119       81.82215       51.41180
N         68.09014       80.84689       51.46527
H         66.62616       86.28566       53.34890
H         68.89225       85.61647       51.66734
H         67.26272       85.63810       49.79266
H         65.99996       86.35175       50.84782
H         65.65185       83.98302       50.49489
H         65.93619       84.29603       52.23827
H         68.25936       83.46733       52.05868
H         68.09426       83.28866       50.26373
H         66.33337       81.58023       50.55402
H         66.40578       81.75692       52.34925
H         68.68198       81.02255       52.30972
H         67.68725       79.88425       51.52921
H         68.67920       80.91072       50.60317
N         67.50474       88.64834       51.00722
C         67.75464       89.92485       50.33237
C         68.79450       90.80224       51.03052
O         69.13894       91.83640       50.47559
C         66.40332       90.66802       50.12782
C         65.67896       90.96685       51.41760
O         66.34296       90.86730       52.57796
O         64.50850       91.30978       51.40937
H         66.55493       88.45822       51.35932
H         68.14623       89.69565       49.31600
H         65.75961       89.98258       49.53397
H         66.53031       91.60266       49.54008
N         69.35218       90.45924       52.22807
C         70.39081       91.23803       52.87870
C         69.92096       92.61527       53.27482
O         70.53613       93.59083       52.86884
H         69.06050       89.59570       52.70322
H         71.27863       91.30434       52.21257
H         70.70559       90.71227       53.80664
N         68.85417       92.76008       54.10838
C         68.40052       94.04187       54.63560
C         68.56682       94.12572       56.15445
O         68.33878       95.19689       56.69821
C         66.95989       94.34512       54.16041
C         65.88791       93.36875       54.57659
O         66.16022       92.29438       55.33660
O         64.74194       93.55229       54.20047
H         68.35905       91.91256       54.39867
H         69.03923       94.85560       54.22907
H         66.96953       94.37150       53.04902
H         66.66631       95.35330       54.52382
N         68.98532       93.05906       56.90128
C         69.26978       93.11969       58.32777
C         68.27575       92.33971       59.15785
O         68.50226       92.20821       60.35300
H         69.13123       92.14638       56.45660
H         69.26681       94.16313       58.70816
H         70.29039       92.70874       58.48495
N         67.11153       91.87505       58.62371
C         66.06009       91.23684       59.40679
C         65.61139       89.92155       58.78485
O         65.99249       89.59958       57.66662
C         64.85832       92.22444       59.55961
C         65.21833       93.36168       60.51699
O         64.46441       92.80718       58.33934
H         66.91857       92.05666       57.63296
H         66.43349       90.97990       60.42275
H         63.98652       91.69704       60.00313
H         64.70073       92.19885       57.59917
H         65.45926       92.95199       61.52074
H         66.08626       93.94256       60.14050
H         64.35374       94.05186       60.62145
N         64.80936       89.09094       59.51035
C         64.29671       87.80425       59.04866
C         62.78319       87.83480       59.18377
O         62.29415       88.18002       60.25247
C         64.91695       86.63812       59.87602
C         66.46577       86.67426       59.76802
C         64.37160       85.28291       59.36922
C         67.17840       85.63129       60.63188
H         64.56572       89.37657       60.47262
H         64.57478       87.62538       57.98842
H         64.63266       86.76455       60.94451
H         66.83299       87.66529       60.10924
H         66.77150       86.53548       58.70868
H         64.75839       84.43662       59.96992
H         63.26673       85.24087       59.45191
H         64.65197       85.12327       58.30468
H         66.90015       85.76154       61.69915
H         66.94127       84.59804       60.30956
H         68.27677       85.76453       60.53425
N         61.97727       87.45467       58.15311
C         60.51735       87.53101       58.21147
C         59.91667       86.15339       58.36944
O         60.65020       85.18024       58.36909
C         59.97438       88.21005       56.93027
C         60.60525       89.58200       56.72409
O         60.26015       87.40397       55.81498
H         62.41357       87.07678       57.29877
H         60.19926       88.12025       59.10020
H         58.87184       88.33016       57.03265
H         59.66662       87.70354       55.07807
H         61.69476       89.44666       56.58158
H         60.19305       90.06202       55.81183
H         60.41718       90.23940       57.59855
N         58.57548       85.99269       58.53920
C         57.96099       84.67239       58.65176
C         58.11896       83.89364       57.35281
O         58.30514       82.68637       57.40622
C         56.46973       84.73469       59.07118
C         56.27535       85.41561       60.43775
O         55.66628       85.33350       58.08398
H         57.98735       86.83644       58.59825
H         58.47748       84.11460       59.46642
H         56.11585       83.68667       59.19334
H         55.86241       86.30465       58.07012
H         56.58082       86.48207       60.40801
H         55.20738       85.36726       60.73718
H         56.87947       84.89857       61.21442
N         58.05903       84.52980       56.14555
C         58.22309       83.84620       54.86503
C         59.59325       83.19460       54.77552
O         59.66793       81.99709       54.53892
C         57.96976       84.83702       53.69972
C         58.08495       84.15688       52.32290
C         57.47445       84.97040       51.16822
C         58.09932       86.35481       50.94830
N         57.49544       87.00460       49.78201
H         57.89217       85.54815       56.13698
H         57.44349       83.05637       54.78120
H         58.66503       85.70405       53.74654
H         56.93162       85.21617       53.82337
H         57.52152       83.19927       52.34994
H         59.15199       83.92512       52.11172
H         56.38477       85.09513       51.35285
H         57.59851       84.37247       50.23893
H         59.19419       86.25350       50.78429
H         57.93064       86.99033       51.84506
H         57.91041       87.95602       49.65870
H         57.68361       86.44159       48.92026
H         56.46187       87.10182       49.91376
N         60.71923       83.92704       54.98360
C         62.07329       83.37659       54.93143
C         62.23214       82.22052       55.90421
O         62.56511       81.12697       55.46799
C         63.09511       84.49350       55.22500
C         63.13561       85.49922       54.05878
C         63.99902       86.68925       54.33132
O         64.16429       87.51713       53.45162
O         64.56889       86.87482       55.53500
H         60.59613       84.92408       55.21166
H         62.27785       82.98244       53.91005
H         64.11248       84.06299       55.34223
H         62.82175       84.99415       56.17985
H         62.12223       85.88478       53.82455
H         63.52874       84.97199       53.16231
N         61.98781       82.37581       57.23037
C         62.08650       81.28242       58.17121
H         61.80784       81.63293       59.18803
H         61.39053       80.46744       57.87729
H         63.12623       80.89477       58.19665
H         61.70451       83.29263       57.58168
Ca        66.10818       89.40403       54.25688
O         62.49667       89.84425       53.45831
H         62.22577       90.70896       53.06027
H         61.86457       89.18402       53.07767
O         63.09631       91.39345       55.92497
H         62.88011       92.30865       55.62140
H         62.77729       91.37268       56.86228

Ca 1.0



