%chk=holoCaM.loop1.water2.frame32.chk
%nprocshared=20
%mem=10GB
%nosave
#b3lyp/svp scf=(tight,noincore,xqc) Test 
#IOP(5/87=12) Density=Current Pop=(MK,readradii) iop(6/33=2) iop(6/42=6)

holoCaM.loop1.water2.frame32 

   0  1 
C         71.55551      104.85898       -5.49650
C         71.86708      105.17636       -6.93000
O         72.93421      105.70842       -7.19842
H         70.56938      104.35693       -5.39712
H         72.33459      104.18121       -5.08888
H         71.53583      105.79572       -4.90235
N         70.96921      104.87695       -7.90844
C         71.19838      105.11756       -9.32500
C         70.18294      106.14069       -9.82892
O         68.99357      105.85658       -9.85399
C         71.13054      103.75616      -10.03982
C         71.08371      103.85971      -11.52521
O         70.14068      103.36474      -12.11543
O         72.05464      104.48591      -12.21247
H         70.07093      104.44529       -7.63913
H         72.21531      105.53595       -9.49564
H         70.21481      103.21337       -9.71409
H         72.01031      103.14525       -9.73810
N         70.60543      107.39566      -10.17643
C         69.71102      108.50158      -10.52400
C         69.08278      108.39826      -11.91521
O         68.29719      109.27329      -12.25271
C         70.47376      109.85970      -10.39645
C         71.33676      110.24728      -11.62225
C         72.17259      111.51257      -11.36623
C         72.81456      112.10222      -12.63975
N         73.70907      111.17241      -13.32865
H         71.60054      107.60955      -10.03944
H         68.91556      108.51645       -9.74648
H         71.08912      109.83346       -9.46936
H         69.72973      110.67572      -10.27166
H         70.65125      110.44688      -12.47164
H         72.01057      109.42504      -11.90535
H         72.95830      111.29090      -10.61505
H         71.51491      112.30327      -10.94780
H         73.39297      113.00617      -12.34812
H         72.01191      112.42242      -13.34090
H         73.16458      110.37325      -13.70895
H         74.15136      111.66435      -14.13907
H         74.45636      110.82593      -12.68653
N         69.43142      107.41886      -12.80012
C         69.02869      107.41959      -14.20889
C         68.13124      106.23778      -14.51121
O         67.04283      106.42175      -15.03707
C         70.29144      107.34071      -15.10151
C         71.26587      108.44114      -14.79308
O         70.94174      109.60781      -14.94538
O         72.48410      108.14012      -14.29258
H         70.07379      106.67552      -12.49370
H         68.48234      108.35357      -14.47147
H         70.01045      107.38169      -16.17621
H         70.79844      106.37253      -14.92075
N         68.55075      104.98488      -14.19921
C         67.83002      103.75661      -14.48181
C         68.69459      102.76661      -15.25009
O         68.26009      101.63847      -15.43077
H         69.45110      104.89626      -13.71930
H         66.88697      103.94613      -15.03977
H         67.56736      103.29198      -13.50824
N         69.92065      103.11433      -15.74468
C         70.79149      102.19478      -16.47976
C         71.39151      101.07931      -15.62822
O         71.88622      100.12917      -16.21911
C         71.89068      102.95460      -17.26783
C         72.50854      104.10915      -16.52375
O         72.36733      105.23494      -16.97706
O         73.14061      103.97336      -15.34630
H         70.21886      104.09060      -15.64604
H         70.16807      101.68170      -17.24515
H         71.39577      103.40197      -18.15827
H         72.66834      102.25679      -17.64325
N         71.41180      101.10952      -14.26608
C         71.89829      100.00027      -13.45342
C         73.25092      100.25252      -12.82019
O         73.69349       99.38480      -12.07925
H         71.07535      101.94487      -13.77874
H         72.00994       99.07538      -14.06121
H         71.13877       99.77830      -12.67313
N         74.00659      101.35162      -13.11744
C         75.37454      101.53631      -12.63044
C         75.56153      102.86779      -11.91546
O         74.66672      103.70074      -11.91303
C         76.37882      101.37871      -13.80273
C         76.48046       99.92275      -14.28085
O         76.05567      102.22977      -14.87424
H         73.63330      102.05098      -13.77213
H         75.61931      100.76019      -11.87156
H         77.39804      101.64641      -13.45266
H         75.29156      101.83360      -15.37174
H         76.82668       99.27594      -13.44650
H         75.50160       99.54684      -14.64534
H         77.22075       99.85306      -15.10614
N         76.70767      103.07913      -11.20232
C         76.97023      104.24178      -10.35675
C         78.32751      104.85616      -10.72296
O         79.32372      104.14876      -10.77663
C         76.86340      103.80531       -8.86104
C         75.38296      103.40312       -8.57077
C         77.31257      104.92835       -7.90709
C         75.09302      102.95212       -7.14004
H         77.40664      102.31995      -11.17777
H         76.19029      105.01907      -10.49557
H         77.53547      102.93607       -8.68765
H         75.08965      102.56526       -9.23699
H         74.71458      104.26530       -8.79406
H         76.64558      105.80381       -7.99193
H         77.30210      104.58156       -6.85455
H         78.35643      105.23803       -8.11860
H         74.02088      102.66847       -7.06195
H         75.71671      102.07392       -6.87675
H         75.26528      103.77246       -6.41416
N         78.42027      106.19914      -10.94823
C         79.61928      106.94419      -11.33062
C         80.01162      107.90496      -10.21105
O         79.45728      107.81419       -9.12641
C         79.32102      107.73323      -12.64134
C         79.02919      106.79168      -13.81357
O         78.28367      108.66940      -12.44039
H         77.57507      106.75991      -10.82470
H         80.48180      106.26699      -11.51381
H         80.21047      108.30633      -12.96670
H         77.42046      108.26765      -12.71624
H         78.16328      106.15573      -13.56842
H         78.80738      107.38027      -14.72976
H         79.90679      106.14064      -14.00946
N         80.96019      108.86515      -10.41293
C         81.32011      109.88614       -9.42855
C         80.11273      110.74115       -9.04366
O         79.86698      110.90060       -7.85694
C         82.46397      110.79444       -9.95462
C         83.76313      110.00914      -10.18027
O         82.08206      111.42379      -11.15070
H         81.43324      108.89395      -11.32525
H         81.70362      109.39137       -8.50719
H         82.66401      111.56152       -9.16866
H         82.64185      112.23897      -11.24083
H         84.56687      110.70243      -10.50680
H         84.08518      109.52011       -9.23679
H         83.64131      109.23250      -10.96294
N         79.31119      111.31697       -9.98992
C         78.14788      112.15236       -9.66289
C         77.04955      111.39188       -8.90364
O         76.10581      112.04180       -8.47385
C         77.51339      112.75078      -10.95028
C         78.27235      113.91831      -11.61786
C         79.70719      113.61595      -12.06703
C         80.32304      114.74546      -12.91643
N         80.38391      116.02723      -12.21070
H         79.54074      111.14821      -10.97881
H         78.48040      112.98879       -9.00837
H         76.52234      113.18840      -10.69561
H         77.32874      111.93203      -11.68059
H         78.28774      114.77518      -10.91115
H         77.67878      114.21521      -12.51081
H         79.70706      112.70173      -12.69819
H         80.34132      113.44598      -11.17196
H         79.73599      114.86950      -13.85347
H         81.35469      114.43988      -13.20028
H         80.87750      116.72204      -12.81695
H         79.42260      116.39256      -12.02594
H         80.91077      115.92558      -11.31360
N         77.07974      110.04043       -8.71233
C         76.03098      109.28481       -8.02656
C         76.54657      108.55798       -6.78361
O         75.72453      107.98113       -6.08438
C         75.47226      108.22022       -8.99486
C         74.84737      108.79637      -10.27033
C         74.53963      107.70271      -11.26501
O         73.28310      107.44763      -11.64934
O         75.43767      107.04865      -11.75929
H         77.85261      109.50600       -9.11119
H         75.21458      109.96299       -7.69422
H         74.71149      107.58734       -8.48614
H         76.32361      107.57903       -9.27561
H         75.54344      109.50953      -10.76072
H         73.92195      109.33413       -9.98420
N         77.87188      108.49602       -6.45918
C         78.38426      107.75284       -5.32365
H         78.97095      108.43073       -4.66978
H         77.57960      107.28667       -4.71758
H         79.05258      106.94389       -5.68971
H         78.57212      108.95688       -7.04777
Ca        73.29622      106.03651      -14.43918
O         75.47072      107.73766      -15.75817
H         74.90084      108.41079      -16.20763
H         75.61630      107.03945      -16.44508
O         76.37336      105.03744      -14.63038
H         75.47387      104.64047      -14.69682
H         76.79087      104.87043      -15.51210

Ca 1.0



