%chk=holoCaM-CaMKII.loop3.water2.frame351.chk
%nprocshared=20
%mem=10GB
%nosave
#b3lyp/svp scf=(tight,noincore,xqc) Test 
#IOP(5/87=12) Density=Current Pop=(MK,readradii) iop(6/33=2) iop(6/42=6)

holoCaM-CaMKII.loop3.water2.frame351 

   0  1 
C         24.05505       63.24402       36.70439
C         22.74556       63.87532       36.35328
O         22.65455       65.09541       36.35957
H         24.80008       64.02051       36.98112
H         23.92306       62.54716       37.55698
H         24.43406       62.68530       35.82299
N         21.67550       63.09339       36.03601
C         20.39997       63.64098       35.60511
C         19.31251       63.36061       36.63586
O         19.35505       62.34462       37.31544
C         20.02722       63.02632       34.24154
C         18.91560       63.75777       33.54284
O         18.38635       63.26361       32.42259
O         18.45492       64.79708       33.98227
H         21.77639       62.06718       36.08053
H         20.49691       64.74265       35.47608
H         19.73206       61.96911       34.40399
H         20.90078       63.01326       33.56294
N         18.30869       64.26106       36.80601
C         17.21737       64.13586       37.76204
C         16.32821       62.93637       37.44966
O         16.13819       62.10706       38.32844
C         16.44565       65.47446       37.76447
C         15.43631       65.63911       38.90422
C         15.03416       67.12078       39.00924
C         14.08152       67.38014       40.17926
N         13.85594       68.81635       40.35122
H         18.34363       65.12144       36.24463
H         17.65837       64.02148       38.77778
H         15.95391       65.65938       36.78574
H         17.21976       66.26185       37.90929
H         15.92475       65.35492       39.86163
H         14.55417       64.98313       38.73959
H         14.56567       67.46566       38.06127
H         15.95782       67.71857       39.18139
H         14.52302       66.97555       41.11706
H         13.11516       66.86374       39.98980
H         13.18181       68.96783       41.13548
H         14.75764       69.29096       40.59178
H         13.46486       69.23393       39.47595
N         15.76972       62.77414       36.21197
C         14.88801       61.65684       35.85020
C         15.50482       60.70913       34.81073
O         14.84822       59.73441       34.46885
C         13.48530       62.18005       35.43387
C         13.44631       63.07861       34.22666
O         12.38706       63.54987       33.84994
O         14.56671       63.38093       33.56610
H         15.99300       63.47797       35.49606
H         14.70734       61.01666       36.74290
H         13.06090       62.74776       36.28982
H         12.81734       61.31277       35.23703
N         16.78158       60.85847       34.33943
C         17.45007       59.83708       33.53380
C         16.92972       59.63899       32.11878
O         17.31506       58.64741       31.51474
H         17.35065       61.64903       34.66676
H         17.35696       58.87108       34.07958
H         18.53555       60.05864       33.46061
N         16.06671       60.50550       31.51455
C         15.45063       60.22860       30.20980
C         16.41302       60.15996       29.01783
O         15.94094       59.84450       27.93386
C         14.34600       61.27085       29.90963
C         14.89631       62.58260       29.39762
N         14.42355       63.13731       28.26154
O         15.78972       63.14498       29.99821
H         15.77003       61.34018       32.03877
H         14.94533       59.24285       30.31590
H         13.74907       61.43666       30.83285
H         13.65310       60.86473       29.14223
H         13.66649       62.69510       27.72289
H         14.80865       64.03300       27.93685
N         17.73872       60.47698       29.11303
C         18.64301       60.47526       27.96721
C         19.33386       61.81088       27.73930
O         20.17419       61.86351       26.85321
H         18.13914       60.73020       30.02682
H         18.12114       60.19382       27.02715
H         19.43089       59.71521       28.15472
N         19.07860       62.91219       28.50901
C         19.82686       64.17124       28.39166
C         19.55722       65.09438       29.57156
O         18.62270       64.85760       30.32078
C         19.59257       64.86659       27.02705
C         18.14407       65.18535       26.72398
C         17.51405       66.31317       27.27810
C         17.41895       64.36453       25.84175
C         16.18537       66.61339       26.94845
C         16.09001       64.65830       25.52599
C         15.46882       65.78435       26.07307
O         14.18561       66.05302       25.75596
H         18.37703       62.82297       29.25308
H         20.90472       63.91002       28.47380
H         19.97233       64.19199       26.23472
H         20.20330       65.79034       26.92898
H         18.05340       66.97095       27.94794
H         17.87997       63.48915       25.40224
H         15.71213       67.49009       27.37185
H         15.54241       64.00890       24.85437
H         13.71228       66.81565       26.11779
N         20.38867       66.14543       29.83467
C         20.24396       66.98036       31.02147
C         19.91234       68.38706       30.57467
O         20.64276       68.95185       29.77242
C         21.49818       66.94404       31.96209
C         21.97268       65.50914       32.30726
C         21.12855       67.63643       33.29405
C         22.86127       64.84886       31.25201
H         21.16716       66.34553       29.18809
H         19.40195       66.60180       31.64321
H         22.35550       67.49543       31.51881
H         21.08774       64.89059       32.51372
H         22.60488       65.53072       33.22338
H         20.29561       67.09769       33.79953
H         21.99591       67.64428       33.98845
H         20.82438       68.68813       33.12932
H         23.16656       63.84287       31.61209
H         22.36120       64.71381       30.28062
H         23.78047       65.45643       31.10807
N         18.81724       69.01734       31.07843
C         18.37599       70.34403       30.67110
C         18.77495       71.36856       31.71599
O         19.47775       71.01981       32.64912
C         16.86119       70.30331       30.41661
O         16.58621       69.38093       29.39912
H         18.28340       68.54932       31.82291
H         18.87777       70.65653       29.72881
H         16.50055       71.30376       30.09784
H         16.33718       70.00103       31.35190
H         15.60658       69.42006       29.24641
N         18.42432       72.67795       31.58318
C         18.93621       73.73099       32.45450
C         18.62667       73.50444       33.92589
O         19.56493       73.39272       34.70351
C         18.39786       75.09511       32.00557
H         17.82696       72.94867       30.78820
H         20.04327       73.75677       32.33655
H         18.82250       75.90433       32.63610
H         18.68479       75.28521       30.94922
H         17.28952       75.12609       32.07616
N         17.34702       73.46935       34.39396
C         17.04124       73.35310       35.81931
C         17.52793       72.04557       36.41526
O         17.87010       72.02600       37.58964
C         15.53849       73.49692       36.06944
H         16.57165       73.57427       33.72170
H         17.53844       74.19448       36.35303
H         14.97600       72.68271       35.56534
H         15.32762       73.46143       37.16053
H         15.18538       74.47616       35.68121
N         17.55388       70.90430       35.67376
C         18.00103       69.61987       36.20432
C         19.45688       69.70976       36.62930
O         19.76193       69.38905       37.76932
C         17.78298       68.49227       35.17029
C         16.28198       68.31927       34.85648
C         16.02026       67.16874       33.93292
O         15.22302       66.15897       34.32689
O         16.49552       67.15592       32.81129
H         17.24498       70.95663       34.69202
H         17.38842       69.35083       37.09509
H         18.16159       67.53942       35.60124
H         18.34976       68.70620       34.23906
H         15.87105       69.23554       34.38494
H         15.73065       68.14090       35.80480
N         20.39861       70.19093       35.77229
C         21.79610       70.36232       36.11145
H         22.42248       69.80665       35.38349
H         22.05543       71.44120       36.05033
H         22.03238       70.00159       37.13364
H         20.10744       70.49078       34.83797
Ca        16.29940       64.00241       32.34527
O         15.90262       66.24016       30.04160
H         15.15440       66.82051       29.75292
H         16.66633       66.85823       30.15816
O         13.39060       65.03847       30.79541
H         12.71261       64.44050       30.39275
H         13.16574       65.06354       31.75820

Ca 1.0



