%chk=holoCaM.loop4.water3.frame168.chk
%nprocshared=20
%mem=10GB
%nosave
#b3lyp/svp scf=(tight,noincore,xqc) Test 
#IOP(5/87=12) Density=Current Pop=(MK,readradii) iop(6/33=2) iop(6/42=6)

holoCaM.loop4.water3.frame168 

   -3  1 
C          5.12473      106.85254        0.04958
C          4.23624      106.03141        0.93486
O          4.66836      104.98143        1.38657
H          6.11743      106.36501       -0.07005
H          4.66009      106.98498       -0.94692
H          5.28655      107.84700        0.51937
N          2.99702      106.48939        1.28077
C          2.16959      105.83913        2.28915
C          0.70838      105.68561        1.85104
O          0.09536      106.67633        1.47917
C          2.24240      106.69280        3.56859
C          1.59623      105.95117        4.68853
O          2.14173      104.77735        5.06582
O          0.59138      106.38840        5.22234
H          2.69406      107.40577        0.91644
H          2.58863      104.83846        2.53634
H          1.75782      107.67856        3.39715
H          3.30417      106.86769        3.85042
N          0.07301      104.47623        1.95265
C         -1.34140      104.24187        1.64930
C         -2.15081      103.78296        2.87491
O         -3.36729      103.89541        2.81412
C         -1.51999      103.20796        0.48633
C         -1.10634      101.76749        0.90928
C         -0.75380      103.67626       -0.76338
C         -1.35314      100.69328       -0.15197
H          0.62022      103.69032        2.28197
H         -1.79166      105.20310        1.31659
H         -2.60267      103.17860        0.22905
H         -1.69493      101.46247        1.79890
H         -0.04069      101.74172        1.18235
H         -0.95793      103.01503       -1.62958
H         -1.07787      104.69861       -1.04927
H          0.34137      103.68413       -0.57534
H         -0.72939      100.85918       -1.05295
H         -1.07643       99.70002        0.26364
H         -2.42623      100.66938       -0.43578
N         -1.57734      103.15918        3.95678
C         -2.34764      102.60123        5.07701
C         -1.97721      103.14685        6.46087
O         -2.60072      102.74173        7.43254
C         -2.32288      101.05784        5.04561
C         -1.07649      100.27617        5.41182
O          0.13586      100.79764        5.70235
O         -1.18597       99.06161        5.45988
H         -0.57204      102.99850        3.94204
H         -3.41822      102.86616        4.93817
H         -2.65203      100.72795        4.03573
H         -3.10117      100.72078        5.76463
N         -1.02535      104.10319        6.62584
C         -0.71586      104.75540        7.89248
C         -0.03626      103.91053        8.95760
O          0.21899      104.46980       10.01580
H         -0.56159      104.46246        5.79070
H         -1.65433      105.18002        8.31178
H         -0.02966      105.60528        7.68998
N          0.28336      102.59099        8.80171
C          0.86840      101.81530        9.89931
C          2.26984      102.26988       10.31248
O          2.68282      101.90328       11.40431
C          0.84151      100.29672        9.61771
C          1.66317       99.84162        8.44036
O          2.28235      100.63349        7.74966
O          1.70528       98.53054        8.13978
H          0.04046      102.11407        7.92495
H          0.20400      101.97181       10.78018
H         -0.21127       99.98828        9.44065
H          1.20533       99.76050       10.52130
N          3.06077      103.04556        9.51198
C          4.35215      103.57452        9.94106
C          5.54310      103.05831        9.15300
O          6.63230      103.55767        9.39732
H          2.73166      103.30104        8.56985
H          4.55309      103.35385       11.01137
H          4.30964      104.67952        9.84455
N          5.44668      102.04521        8.24206
C          6.60053      101.49583        7.52462
C          6.37852      101.53622        6.02058
O          5.30683      101.92703        5.58325
C          6.82991      100.03767        7.97705
C          7.16172       99.94581        9.47459
C          7.39212       98.51778        9.89511
N          6.39776       97.60283        9.81232
O          8.48623       98.18480       10.32554
H          4.53365      101.60189        8.08213
H          7.52093      102.08141        7.74160
H          7.68258       99.59592        7.41805
H          5.91974       99.44150        7.74770
H          6.33462      100.36373       10.08662
H          8.08025      100.54258        9.67164
H          5.46427       97.86633        9.46488
H          6.55875       96.62767       10.10467
N          7.35809      101.10506        5.16869
C          7.20825      101.03545        3.71758
C          7.19173       99.56736        3.31425
O          8.02522       98.79469        3.76558
C          8.30764      101.84078        2.97803
C          8.06692      101.80611        1.45428
C          8.31495      103.30872        3.43398
H          8.24868      100.77050        5.56642
H          6.24521      101.49276        3.41197
H          9.30330      101.39860        3.19826
H          8.85210      102.38203        0.92097
H          8.08781      100.76668        1.06679
H          7.07925      102.25408        1.20522
H          7.33857      103.78961        3.21660
H          8.51863      103.38459        4.52210
H          9.10628      103.87444        2.89735
N          6.21780       99.12615        2.47721
C          5.93305       97.74308        2.13877
C          6.13121       97.53734        0.64409
O          6.48023       98.47955       -0.05263
C          4.46223       97.49781        2.57918
C          3.91038       96.11261        2.36797
N          4.46392       95.04294        2.98058
O          2.92947       95.95838        1.65529
H          5.60774       99.82243        2.04964
H          6.61452       97.05669        2.68580
H          3.80910       98.22118        2.04053
H          4.38234       97.71994        3.66528
H          5.28117       95.15288        3.59670
H          4.06655       94.10251        2.84108
N          5.96978       96.30669        0.08802
C          6.09346       96.05291       -1.34735
C          4.95607       96.65459       -2.17590
O          5.16231       96.81568       -3.37127
C          6.29787       94.54311       -1.64254
C          5.39031       93.63207       -0.83830
C          3.99483       93.66366       -0.97502
C          5.96293       92.76032        0.10806
C          3.18694       92.85582       -0.16400
C          5.15817       91.95223        0.91095
C          3.76859       92.00064        0.78525
O          3.00688       91.22738        1.58492
H          5.79936       95.52199        0.72714
H          7.02314       96.55654       -1.69938
H          7.34664       94.31320       -1.35291
H          6.21939       94.33804       -2.73204
H          3.53465       94.32005       -1.69628
H          7.03707       92.71626        0.24039
H          2.11033       92.90045       -0.26732
H          5.61797       91.29726        1.64077
H          2.04040       91.24043        1.54759
N          3.75081       97.02721       -1.64386
C          2.73120       97.72238       -2.43781
C          2.97248       99.22844       -2.44777
O          2.22493       99.93742       -3.10775
C          1.30699       97.46416       -1.89523
C          0.90379       95.98698       -1.95371
C         -0.52499       95.80306       -1.52690
O         -1.42817       96.33734       -2.15186
O         -0.81861       95.03331       -0.46206
H          3.57311       96.87379       -0.64227
H          2.75878       97.35401       -3.48825
H          0.58854       98.03559       -2.52587
H          1.22254       97.83675       -0.84964
H          1.56052       95.39950       -1.28300
H          1.01159       95.60641       -2.99262
N          3.97896       99.78864       -1.72008
C          4.21391      101.21789       -1.59544
C          5.57713      101.60298       -2.16368
O          5.90823      102.77970       -2.11572
C          4.15218      101.59939       -0.09516
C          2.88691      101.06941        0.60572
C          2.87605      101.36936        2.08334
O          1.93633      101.93870        2.58892
O          3.86146      100.95762        2.88677
H          4.59479       99.18418       -1.17638
H          3.43448      101.78871       -2.14587
H          4.21789      102.70294        0.01422
H          5.03247      101.15150        0.40376
H          2.84320       99.96489        0.50723
H          1.98959      101.49852        0.11210
N          6.42448      100.67568       -2.70851
C          7.73899      100.99584       -3.22757
H          8.50255      100.41325       -2.66929
H          7.79035      100.71284       -4.29984
H          7.98484      102.07364       -3.13332
H          6.15226       99.68476       -2.76482
Ca         1.22776      102.75108        5.41817
O          2.55130       99.38924        4.80728
H          1.85807       99.17569        4.13315
H          2.35795       98.78194        5.56295
O          4.63217      104.19656        4.22731
H          4.81649      103.52232        3.52702
H          5.45836      104.73536        4.29362
O          3.83685      105.32986        7.01805
H          4.72437      104.98544        7.28413
H          3.43934      105.70299        7.84368

Ca 1.0



