%chk=holoCaM.loop1.water2.frame28.chk
%nprocshared=20
%mem=10GB
%nosave
#b3lyp/svp scf=(tight,noincore,xqc) Test 
#IOP(5/87=12) Density=Current Pop=(MK,readradii) iop(6/33=2) iop(6/42=6)

holoCaM.loop1.water2.frame28 

   0  1 
C         63.28466       91.49128       -6.62167
C         63.30639       90.86806       -7.98235
O         63.62621       91.54496       -8.94969
H         62.26364       91.41896       -6.19474
H         63.99707       90.95178       -5.96094
H         63.58720       92.55833       -6.67316
N         63.01386       89.54734       -8.12205
C         63.11485       88.85843       -9.39871
C         62.00774       89.33911      -10.34930
O         60.84001       89.08605      -10.09148
C         63.15422       87.33217       -9.13193
C         63.56023       86.52517      -10.31828
O         63.87157       85.35299      -10.18843
O         63.50997       87.06954      -11.53565
H         62.79506       89.00507       -7.27072
H         64.11510       89.11106       -9.82136
H         62.20059       86.94961       -8.70781
H         63.95650       87.16977       -8.37794
N         62.32344       90.11854      -11.42871
C         61.35403       90.77086      -12.31679
C         60.47274       89.79926      -13.09077
O         59.28775       90.06518      -13.23119
C         62.06148       91.77494      -13.28347
C         62.69027       91.17072      -14.55975
C         63.60629       92.18263      -15.27262
C         64.20559       91.64352      -16.58569
N         63.20727       91.54808      -17.65299
H         63.31266       90.35642      -11.55591
H         60.70997       91.40790      -11.66996
H         62.82146       92.33392      -12.69331
H         61.31872       92.52238      -13.63947
H         61.86757       90.84017      -15.22601
H         63.29834       90.28965      -14.32478
H         64.45070       92.40348      -14.58385
H         63.07215       93.13430      -15.47907
H         64.68326       90.65487      -16.41388
H         65.00139       92.34535      -16.92086
H         62.81205       92.49661      -17.85084
H         63.67039       91.19642      -18.52219
H         62.43870       90.88981      -17.39814
N         61.00540       88.67966      -13.66142
C         60.25963       87.75862      -14.52677
C         60.04464       86.38233      -13.89036
O         59.39035       85.55647      -14.51226
C         60.91283       87.67496      -15.94248
C         62.34079       87.19035      -15.98695
O         62.92686       87.06764      -17.04948
O         62.97225       86.92330      -14.84447
H         61.99386       88.48548      -13.46310
H         59.23315       88.15211      -14.69175
H         60.89091       88.68642      -16.40012
H         60.29938       86.99748      -16.57403
N         60.48092       86.08565      -12.63222
C         60.13684       84.85750      -11.93149
C         60.69675       83.60271      -12.55711
O         59.92712       82.69749      -12.84784
H         61.00902       86.78636      -12.09637
H         59.02932       84.77948      -11.85014
H         60.54070       84.91320      -10.89700
N         62.03967       83.45311      -12.72729
C         62.66515       82.19603      -13.13491
C         63.62900       81.69967      -12.04887
O         64.38767       80.77524      -12.30449
C         63.29585       82.32935      -14.54275
C         64.48056       83.23681      -14.66688
O         65.02844       83.80235      -13.58814
O         64.98197       83.43177      -15.76177
H         62.65245       84.25174      -12.50437
H         61.89931       81.39916      -13.26041
H         62.50192       82.69139      -15.23215
H         63.61899       81.32526      -14.89295
N         63.58841       82.21829      -10.78097
C         64.40579       81.74661       -9.67223
C         65.83039       82.26834       -9.66189
O         66.53622       81.95102       -8.71431
H         62.87126       82.91708      -10.54266
H         64.37934       80.63660       -9.62631
H         63.95014       82.12491       -8.73033
N         66.32425       83.08398      -10.63695
C         67.66703       83.66036      -10.60814
C         67.62718       85.18004      -10.68201
O         66.59254       85.76986      -10.96115
C         68.53751       83.09602      -11.76280
C         68.94503       81.65129      -11.48853
O         67.85677       83.14044      -12.98916
H         65.72352       83.32323      -11.42830
H         68.16657       83.42348       -9.64253
H         69.48827       83.66958      -11.84689
H         67.55557       84.07230      -13.11854
H         69.57817       81.28056      -12.32312
H         69.54366       81.60135      -10.55337
H         68.05486       80.99653      -11.39109
N         68.75653       85.87173      -10.36711
C         68.87856       87.32239      -10.31592
C         70.09151       87.73886      -11.14978
O         71.18798       87.24638      -10.92315
C         68.93581       87.75143       -8.81315
C         67.49667       87.62472       -8.22102
C         69.46999       89.18122       -8.62343
C         67.38327       87.86922       -6.71785
H         69.58167       85.32868      -10.06643
H         67.98469       87.82233      -10.74741
H         69.63761       87.07574       -8.27637
H         67.10471       86.60293       -8.40134
H         66.82072       88.34273       -8.74135
H         70.49767       89.27307       -9.03018
H         68.81561       89.91426       -9.12040
H         69.54124       89.44116       -7.54848
H         67.99780       87.12934       -6.16523
H         67.68818       88.89763       -6.44121
H         66.32069       87.74625       -6.41350
N         69.94812       88.68965      -12.11603
C         71.01127       89.22864      -12.95285
C         71.52596       90.51623      -12.33269
O         71.11249       90.86434      -11.23513
C         70.46704       89.50529      -14.39208
C         69.97402       88.23575      -15.09693
O         69.47409       90.50795      -14.37278
H         69.04417       89.15121      -12.19583
H         71.86260       88.51682      -13.01996
H         71.28529       89.88286      -15.03688
H         68.58158       90.08187      -14.31041
H         69.13392       87.79024      -14.53225
H         69.62065       88.48946      -16.12061
H         70.79752       87.49652      -15.17960
N         72.42705       91.29014      -12.99580
C         72.89149       92.58053      -12.50146
C         71.70847       93.52514      -12.31061
O         71.56601       94.08694      -11.23589
C         73.92109       93.18209      -13.49154
C         74.52366       94.48845      -12.96658
O         74.96165       92.25786      -13.68961
H         72.77927       90.96209      -13.90662
H         73.40910       92.42767      -11.52715
H         73.40230       93.38090      -14.46022
H         75.30525       92.39843      -14.61085
H         73.73787       95.25626      -12.81112
H         75.05047       94.30621      -12.00515
H         75.25546       94.88351      -13.70238
N         70.83224       93.75616      -13.32981
C         69.70127       94.68400      -13.23770
C         68.55903       94.20322      -12.33402
O         67.63307       94.98008      -12.14311
C         69.17644       95.00122      -14.65539
C         70.24292       95.77080      -15.45899
C         69.80930       96.00714      -16.90970
C         70.85919       96.79310      -17.71769
N         70.99324       98.17911      -17.26139
H         71.01388       93.28523      -14.22932
H         70.06875       95.64324      -12.80721
H         68.27275       95.64779      -14.59724
H         68.89525       94.05244      -15.16360
H         71.19977       95.20723      -15.47950
H         70.41817       96.73777      -14.94282
H         68.83645       96.54284      -16.94711
H         69.67952       95.01246      -17.39000
H         70.53844       96.80402      -18.78227
H         71.84525       96.27898      -17.66527
H         71.67118       98.67667      -17.88259
H         70.06884       98.66528      -17.31901
H         71.35868       98.22385      -16.28460
N         68.56086       92.98867      -11.70665
C         67.54368       92.58195      -10.73072
C         68.12487       92.55816       -9.31555
O         67.35894       92.36170       -8.38210
C         66.99730       91.17346      -11.06000
C         66.31214       91.04938      -12.42603
C         65.99587       89.60206      -12.73775
O         66.88355       88.77945      -12.84856
O         64.73898       89.19334      -12.92592
H         69.34003       92.34590      -11.87626
H         66.70614       93.31293      -10.71439
H         66.27421       90.84909      -10.27798
H         67.85597       90.48613      -11.02945
H         66.97513       91.43700      -13.22548
H         65.38307       91.65817      -12.41549
N         69.45822       92.73406       -9.07436
C         70.05779       92.72532       -7.75677
H         70.59501       93.68431       -7.59683
H         69.30954       92.59793       -6.94881
H         70.79452       91.89613       -7.69633
H         70.10864       92.86368       -9.85068
Ca        64.49511       86.32297      -13.37374
O         66.10958       88.08224      -15.63499
H         65.20696       88.36517      -15.92363
H         66.73159       88.62191      -16.18406
O         67.66403       85.80737      -14.83634
H         67.18262       85.36762      -15.57986
H         68.55300       85.37051      -14.81943

Ca 1.0



