%chk=holoCaM.loop3.water2.frame132.chk
%nprocshared=20
%mem=10GB
%nosave
#b3lyp/svp scf=(tight,noincore,xqc) Test 
#IOP(5/87=12) Density=Current Pop=(MK,readradii) iop(6/33=2) iop(6/42=6)

holoCaM.loop3.water2.frame132 

   0  1 
C         22.72032      105.67733        3.34847
C         22.51640      105.60891        4.82847
O         23.48581      105.46488        5.55880
H         23.79893      105.58296        3.09878
H         22.16382      104.85022        2.86171
H         22.34699      106.65070        2.96716
N         21.26662      105.72921        5.35294
C         21.03123      105.68569        6.78672
C         21.33758      104.29277        7.30996
O         20.70540      103.34417        6.86434
C         19.58589      106.11878        7.10896
C         19.40564      106.39093        8.57125
O         20.38363      106.12462        9.43507
O         18.41439      106.95847        8.97182
H         20.47438      105.89407        4.71227
H         21.70146      106.44507        7.25325
H         18.83369      105.38864        6.73962
H         19.41336      107.09034        6.59572
N         22.33125      104.09090        8.22366
C         22.75256      102.75355        8.63732
C         21.87058      102.17616        9.74068
O         21.99230      100.99104       10.01417
C         24.25134      102.75009        9.01449
C         25.16337      103.29287        7.88596
C         25.17356      102.42053        6.61719
C         26.02874      103.06263        5.51360
N         26.09118      102.20630        4.32934
H         22.86657      104.90849        8.55441
H         22.63275      102.07040        7.77071
H         24.57690      101.72117        9.28236
H         24.38664      103.39744        9.90845
H         26.20328      103.35109        8.27344
H         24.85460      104.32552        7.62280
H         24.14884      102.29954        6.21094
H         25.57905      101.41805        6.87478
H         27.05972      103.24715        5.88608
H         25.58430      104.04100        5.22934
H         26.63051      102.69758        3.58005
H         26.57785      101.31099        4.56424
H         25.12871      102.00317        3.97343
N         20.93002      102.93449       10.37810
C         19.91758      102.39740       11.28343
C         18.51251      102.57087       10.68591
O         17.55537      102.12545       11.30474
C         20.07165      103.00124       12.69528
C         19.95543      104.49414       12.74626
O         20.98860      105.23001       13.19930
O         18.92107      105.04488       12.41313
H         20.88406      103.93746       10.17919
H         20.05567      101.30108       11.40698
H         21.07397      102.71770       13.08498
H         19.31009      102.56106       13.37470
N         18.32487      103.11948        9.44530
C         17.06850      103.10157        8.71414
C         15.96415      104.01110        9.20674
O         14.91625      103.98199        8.57559
H         19.13158      103.45581        8.90859
H         16.69466      102.05479        8.68090
H         17.27529      103.41017        7.66578
N         16.07170      104.83134       10.29321
C         14.92370      105.61925       10.75150
C         14.54560      106.76359        9.80247
O         13.50951      107.37536       10.02097
C         15.12572      106.12351       12.19837
C         16.05748      107.30361       12.33297
N         15.63515      108.43596       12.94628
O         17.19787      107.23824       11.90319
H         16.94038      104.82857       10.84245
H         14.06909      104.90788       10.81044
H         15.50103      105.28046       12.81870
H         14.13350      106.41140       12.60860
H         14.67971      108.50867       13.32730
H         16.26541      109.24348       13.05396
N         15.34862      107.13061        8.75833
C         15.05071      108.20176        7.81976
C         15.96548      109.41540        7.94789
O         15.79643      110.32332        7.14709
H         16.21684      106.62017        8.59559
H         14.01263      108.57332        7.95626
H         15.12099      107.78589        6.79132
N         16.87653      109.56080        8.96219
C         17.58933      110.81583        9.22311
C         19.10001      110.63284        9.28455
O         19.56101      109.64696        9.83806
C         17.09487      111.43602       10.54682
C         15.61000      111.73072       10.49761
C         14.66561      110.69087       10.57432
C         15.15442      113.05182       10.35747
C         13.29903      110.96199       10.49637
C         13.78468      113.32200       10.27225
C         12.85258      112.27591       10.33846
O         11.52996      112.52002       10.24923
H         16.98352      108.80868        9.65506
H         17.36736      111.57305        8.43886
H         17.65468      112.38816       10.68432
H         17.32255      110.79016       11.42201
H         14.98165      109.66614       10.69368
H         15.85851      113.87174       10.29267
H         12.58773      110.14732       10.55281
H         13.44997      114.34372       10.14843
H         11.17905      113.41333       10.12665
N         19.93098      111.59646        8.77551
C         21.39393      111.52199        8.79120
C         21.98269      112.69662        9.57874
O         21.80864      113.84032        9.18186
C         21.91173      111.49234        7.31944
C         21.43777      110.17381        6.64826
C         23.44295      111.63561        7.23729
C         21.85633      110.01821        5.18672
H         19.50637      112.43010        8.34091
H         21.73069      110.58462        9.28703
H         21.48045      112.36370        6.77647
H         20.32830      110.12762        6.68027
H         21.83527      109.30345        7.21650
H         23.93969      110.77631        7.71837
H         23.77719      111.70290        6.18331
H         23.78484      112.57683        7.71288
H         21.43790      109.06986        4.78830
H         21.47268      110.86588        4.58191
H         22.95920      109.95540        5.08806
N         22.71461      112.46241       10.70982
C         23.36674      113.50484       11.50798
C         24.70636      113.93502       10.90069
O         25.08478      113.43458        9.85189
C         23.59344      112.97549       12.94053
O         24.52120      111.92191       12.93898
H         22.78044      111.48982       11.04428
H         22.68438      114.37795       11.60458
H         22.61122      112.65770       13.36488
H         23.97203      113.77239       13.61297
H         24.08274      111.13887       13.35741
N         25.50481      114.82936       11.55967
C         26.84643      115.22101       11.12276
C         27.76140      114.01772       10.99458
O         28.39129      113.86210        9.95878
C         27.46657      116.20203       12.12805
H         25.15482      115.23290       12.44103
H         26.78393      115.74213       10.14156
H         26.83764      117.11266       12.21250
H         27.55663      115.73708       13.13390
H         28.48054      116.50778       11.78928
N         27.87404      113.11952       12.01291
C         28.70659      111.92198       11.94448
C         28.30052      111.04067       10.77995
O         29.14678      110.67003        9.97855
C         28.57399      111.11705       13.24708
H         27.31810      113.28453       12.86682
H         29.77466      112.21253       11.83432
H         27.52129      110.80139       13.41776
H         29.21113      110.20735       13.20513
H         28.89911      111.73291       14.11158
N         27.00325      110.65854       10.64395
C         26.52729      109.73184        9.62013
C         26.67836      110.26929        8.19940
O         26.47107      109.50235        7.26846
C         25.05064      109.38476        9.89999
C         24.88684      108.68223       11.26152
C         23.44675      108.49278       11.60071
O         22.67697      107.77378       10.78510
O         22.97260      108.96212       12.62204
H         26.33449      111.02637       11.33413
H         27.12890      108.79814        9.69245
H         24.64851      108.71889        9.10290
H         24.46798      110.32954        9.89493
H         25.34787      109.26264       12.08286
H         25.38492      107.69030       11.21935
N         27.02631      111.56056        7.94223
C         27.21496      112.06357        6.59935
H         28.04591      111.51645        6.10554
H         26.28456      111.94261        6.00745
H         27.47656      113.14324        6.63525
H         27.15534      112.22052        8.71373
Ca        20.56815      107.30318       11.29082
O         18.96246      107.64216       14.17968
H         18.22239      107.04083       14.44693
H         19.28648      108.02937       15.03048
O         19.91633      110.38865       12.72387
H         20.67153      110.46484       12.08869
H         19.58369      111.31577       12.82194

Ca 1.0



