%chk=holoCaM-CaMKII.loop3.water2.frame155.chk
%nprocshared=20
%mem=10GB
%nosave
#b3lyp/svp scf=(tight,noincore,xqc) Test 
#IOP(5/87=12) Density=Current Pop=(MK,readradii) iop(6/33=2) iop(6/42=6)

holoCaM-CaMKII.loop3.water2.frame155 

   0  1 
C          0.91209       90.31828       56.19330
C          1.15965       88.92101       56.67696
O          0.63596       88.54489       57.71274
H          0.24356       90.86710       56.89083
H          1.87781       90.86255       56.12356
H          0.43755       90.28643       55.19047
N          1.97972       88.09702       55.97276
C          2.30849       86.73878       56.37535
C          3.76735       86.69571       56.78306
O          4.59630       86.09153       56.11518
C          1.95488       85.74632       55.24862
C          2.50407       84.39014       55.59048
O          3.31427       83.85822       54.85295
O          2.19001       83.82275       56.76484
H          2.42879       88.46437       55.11948
H          1.73019       86.41940       57.27342
H          2.39763       86.07927       54.28622
H          0.85049       85.70138       55.13198
N          4.13717       87.30901       57.93275
C          5.49300       87.24139       58.45088
C          5.82292       85.80484       58.85144
O          6.82489       85.27896       58.38790
C          5.68539       88.22232       59.62855
C          5.35464       89.67105       59.20285
C          5.72747       90.69339       60.28251
C          5.34937       92.13552       59.88935
N          3.89865       92.34653       59.86297
H          3.41312       87.81419       58.46533
H          6.20164       87.58014       57.66043
H          6.75198       88.16968       59.93997
H          5.04944       87.93799       60.49508
H          4.27263       89.74258       58.98610
H          5.91539       89.92792       58.27694
H          6.82998       90.64862       60.42089
H          5.24290       90.43942       61.24941
H          5.79029       92.39352       58.90026
H          5.78662       92.82407       60.64511
H          3.70537       93.35296       59.65581
H          3.44127       91.77199       59.12122
H          3.48721       92.11505       60.79656
N          5.00377       85.10392       59.69544
C          5.29117       83.74201       60.16857
C          5.40553       82.67201       59.07400
O          5.84087       81.57310       59.38966
C          4.25322       83.28684       61.22130
C          2.87243       83.07957       60.64558
O          2.35596       81.97464       60.68863
O          2.19300       84.10319       60.09430
H          4.17007       85.58984       60.05715
H          6.27946       83.79533       60.67707
H          4.19944       84.03382       62.04212
H          4.60083       82.32811       61.66725
N          5.05654       82.90737       57.78069
C          5.27693       81.95739       56.69984
C          4.48268       80.66611       56.78123
O          5.09430       79.61198       56.68130
H          4.67278       83.82513       57.52370
H          6.36376       81.73245       56.62875
H          5.00002       82.43987       55.74640
N          3.11966       80.66431       56.88578
C          2.30025       79.45803       56.74555
C          1.25070       79.58380       55.62955
O          0.53279       78.61790       55.40998
C          1.65189       79.04952       58.08740
C          0.62510       79.99238       58.66303
N         -0.04270       79.64124       59.78535
O          0.37835       81.05922       58.12695
H          2.64268       81.55539       57.04521
H          2.94964       78.59985       56.46421
H          2.45339       78.89515       58.84177
H          1.14771       78.07051       57.92960
H          0.14585       78.73960       60.24802
H         -0.76036       80.26288       60.18447
N          1.11778       80.70893       54.86151
C          0.21286       80.79484       53.72089
C         -1.18232       81.31180       54.03789
O         -1.94585       81.46862       53.09600
H          1.76993       81.49360       54.98946
H          0.16329       79.81863       53.19082
H          0.65256       81.51681       52.99796
N         -1.58929       81.62700       55.30340
C         -2.89712       82.21778       55.61394
C         -2.66794       83.62322       56.23311
O         -1.61918       84.21225       55.56625
C         -3.66447       81.30153       56.59448
C         -4.06235       79.97579       55.97902
C         -3.10186       79.03080       55.57083
C         -5.42456       79.66825       55.81747
C         -3.49585       77.82047       54.99413
C         -5.81655       78.45541       55.24573
C         -4.85228       77.52891       54.82705
O         -5.21693       76.35783       54.26789
H         -0.93927       81.47785       56.08393
H         -3.49755       82.35836       54.68858
H         -4.58396       81.82603       56.92347
H         -3.05228       81.11585       57.50309
H         -2.04709       79.21667       55.69704
H         -6.18809       80.36934       56.13048
H         -2.74406       77.10779       54.67810
H         -6.87050       78.23926       55.12742
H         -6.14544       76.11984       54.13399
N         -3.82662       84.53546       56.19947
C         -3.67354       85.62297       57.21287
C         -4.94285       85.82743       58.04648
O         -6.00036       85.30485       57.72099
C         -3.22498       86.99857       56.59361
C         -4.21143       87.47391       55.49560
C         -1.77844       86.99278       56.07455
C         -3.86963       88.84540       54.90289
H         -4.66869       83.95603       56.39750
H         -2.91393       85.31257       57.96959
H         -3.22267       87.74380       57.41949
H         -5.23093       87.54043       55.93005
H         -4.23335       86.73320       54.66658
H         -1.68832       86.44533       55.11953
H         -1.43742       88.02667       55.86702
H         -1.09125       86.57911       56.84317
H         -3.83734       89.61708       55.70041
H         -2.89655       88.82497       54.36906
H         -4.64277       89.12904       54.15859
N         -4.86047       86.54172       59.20418
C         -5.95681       86.69562       60.15345
C         -6.18153       88.15919       60.49939
O         -5.51254       89.02017       59.94941
C         -5.59347       85.89494       61.41673
O         -4.42829       86.41101       62.00155
H         -3.94250       86.92450       59.47570
H         -6.90333       86.27586       59.74812
H         -5.43276       84.83393       61.11636
H         -6.42097       85.92564       62.15592
H         -4.12029       85.73336       62.65711
N         -7.09827       88.50818       61.44569
C         -7.26285       89.87065       61.94225
C         -5.98356       90.35091       62.60902
O         -5.49105       91.41404       62.25789
C         -8.40936       89.92740       62.96018
H         -7.67940       87.76451       61.86143
H         -7.53445       90.54894       61.10230
H         -8.54080       90.96723       63.32980
H         -9.35751       89.60519       62.48005
H         -8.20879       89.26352       63.82833
N         -5.38948       89.59882       63.58345
C         -4.18801       90.00259       64.31644
C         -2.93440       90.16220       63.45546
O         -1.91373       90.54756       64.00993
C         -3.89862       88.98317       65.42805
H         -5.84145       88.70761       63.84138
H         -4.39707       90.98102       64.80280
H         -3.03102       89.30613       66.04281
H         -4.77845       88.89412       66.10036
H         -3.67762       87.98528       64.99083
N         -2.92328       89.92222       62.11266
C         -1.75390       90.12360       61.26773
C         -1.99729       91.32557       60.37632
O         -1.23569       92.27927       60.45811
C         -1.47119       88.86048       60.43464
C         -1.13755       87.64540       61.31096
C         -0.91159       86.41905       60.47238
O         -0.01432       86.39070       59.64554
O         -1.69521       85.33721       60.63896
H         -3.77906       89.60961       61.64507
H         -0.84876       90.34135       61.87864
H         -0.60994       89.06684       59.76971
H         -2.35391       88.62620       59.80273
H         -1.97594       87.44835       62.01125
H         -0.22332       87.85238       61.90769
N         -3.05849       91.36289       59.52214
C         -3.37925       92.50226       58.68749
H         -4.39078       92.87490       58.95593
H         -2.65783       93.33666       58.81131
H         -3.38299       92.19011       57.62284
H         -3.68774       90.55389       59.46497
Ca         0.02506       83.71962       56.98096
O         -0.51870       82.43251       61.85924
H         -0.16881       81.60968       62.28488
H         -1.45048       82.50317       62.18628
O         -2.77338       82.68796       59.63643
H         -3.56227       83.27117       59.76943
H         -3.03591       81.82015       60.03465

Ca 1.0



