%chk=holoCaM-CaMKII.loop1.water2.frame349.chk
%nprocshared=20
%mem=10GB
%nosave
#b3lyp/svp scf=(tight,noincore,xqc) Test 
#IOP(5/87=12) Density=Current Pop=(MK,readradii) iop(6/33=2) iop(6/42=6)

holoCaM-CaMKII.loop1.water2.frame349 

   0  1 
C         37.68504       59.69261       41.92414
C         38.81779       59.98572       42.86018
O         38.58473       60.06819       44.05318
H         36.91883       60.49043       42.01845
H         38.02919       59.65731       40.86897
H         37.23191       58.71372       42.18407
N         40.07763       60.17323       42.38412
C         41.22709       60.48366       43.22967
C         40.96759       61.78016       43.99029
O         40.68986       62.78188       43.34503
C         42.47090       60.61343       42.32075
C         43.76129       60.82707       43.04460
O         43.81960       60.81765       44.38593
O         44.77945       60.99967       42.39830
H         40.22091       60.09927       41.36435
H         41.39397       59.64168       43.93843
H         42.31691       61.46175       41.61897
H         42.58691       59.68193       41.72340
N         41.03392       61.83507       45.35767
C         40.71646       63.04503       46.11890
C         41.93340       63.68606       46.77428
O         41.77840       64.78903       47.28164
C         39.66311       62.74951       47.21311
C         38.31418       62.20057       46.72276
C         37.61126       63.15490       45.74924
C         36.17693       62.70074       45.45351
N         35.53266       63.61147       44.50727
H         41.31540       60.99163       45.87574
H         40.32077       63.82400       45.43413
H         39.45375       63.68772       47.77279
H         40.09067       62.01970       47.93584
H         37.67489       62.06634       47.62353
H         38.44417       61.20517       46.25442
H         38.18517       63.20187       44.79949
H         37.56811       64.17108       46.19805
H         35.59634       62.69082       46.40365
H         36.17882       61.67119       45.03197
H         36.03043       63.57962       43.58789
H         34.53967       63.31665       44.36659
H         35.54459       64.58929       44.87943
N         43.15923       63.08796       46.81567
C         44.34063       63.73028       47.39574
C         45.48310       63.86705       46.38618
O         46.53753       64.35846       46.76407
C         44.76841       62.99899       48.68738
C         45.22169       61.57394       48.53359
O         45.60329       60.89243       49.62980
O         45.26044       61.02846       47.44381
H         43.26271       62.13802       46.43976
H         44.09742       64.76574       47.72055
H         43.90818       63.01299       49.39245
H         45.59764       63.56870       49.16018
N         45.33460       63.50940       45.07678
C         46.36240       63.68992       44.06465
C         47.58173       62.82313       44.28637
O         48.67418       63.36397       44.38265
H         44.43006       63.15341       44.74657
H         46.64668       64.76423       44.01959
H         45.93990       63.41554       43.07418
N         47.46874       61.46319       44.34290
C         48.61506       60.55672       44.47860
C         48.74103       59.54103       43.33969
O         49.81536       58.97118       43.20780
C         48.61466       59.86668       45.86110
C         47.36487       59.08985       46.21419
O         46.33660       58.97891       45.34977
O         47.25992       58.61544       47.33260
H         46.52040       61.07509       44.29747
H         49.55115       61.15701       44.43091
H         48.71926       60.66977       46.62294
H         49.50259       59.20266       45.94692
N         47.71464       59.25041       42.48824
C         47.83644       58.36063       41.33994
C         46.99927       57.10126       41.45934
O         46.87753       56.40253       40.46224
H         46.79559       59.67632       42.63596
H         48.88742       58.05118       41.15376
H         47.49986       58.93284       40.44863
N         46.44959       56.70367       42.64325
C         45.66947       55.47562       42.81092
C         44.31291       55.78677       43.43627
O         44.04300       56.94428       43.72529
C         46.47894       54.46464       43.66240
C         47.72992       53.98956       42.91006
O         46.85601       55.05698       44.87646
H         46.62941       57.26606       43.48681
H         45.46212       54.99800       41.82750
H         45.84656       53.57044       43.86020
H         47.21013       54.33277       45.45611
H         47.43816       53.49997       41.95635
H         48.41149       54.83763       42.68963
H         48.28136       53.24626       43.52435
N         43.38711       54.80021       43.63403
C         42.05709       55.03387       44.20134
C         41.85628       54.12190       45.41259
O         42.04856       52.92040       45.27467
C         40.94136       54.75272       43.14545
C         41.24576       55.42879       41.78182
C         39.58215       55.23815       43.70051
C         40.22300       55.08086       40.69400
H         43.61738       53.84026       43.33277
H         41.95025       56.09930       44.50153
H         40.89751       53.65578       42.96321
H         42.22647       55.06158       41.41091
H         41.30742       56.53303       41.89510
H         39.59830       56.34119       43.84913
H         38.74327       54.98659       43.02364
H         39.35439       54.75930       44.67123
H         40.14928       53.97828       40.57351
H         39.22033       55.49150       40.92689
H         40.54438       55.51874       39.72608
N         41.39973       54.60581       46.60537
C         41.12689       53.75529       47.77058
C         39.64214       53.42007       47.87596
O         38.85466       53.91894       47.09008
C         41.61093       54.44653       49.07089
C         43.10973       54.73232       49.03770
O         40.91114       55.65145       49.24968
H         41.17221       55.60584       46.66736
H         41.65486       52.78262       47.65715
H         41.40513       53.76767       49.92939
H         41.05391       55.93974       50.18879
H         43.42224       55.19947       49.99628
H         43.68196       53.79180       48.89912
H         43.33722       55.43523       48.21223
N         39.19440       52.53825       48.82005
C         37.78359       52.15349       48.97082
C         36.89637       53.28063       49.51339
O         35.69033       53.08806       49.57866
C         37.64793       50.91221       49.88716
C         38.31475       49.67860       49.26089
O         38.21042       51.18862       51.14440
H         39.89889       52.08717       49.42249
H         37.39020       51.86982       47.96813
H         36.56371       50.68023       50.00489
H         37.96528       50.43622       51.74320
H         37.84959       49.45435       48.27686
H         39.40372       49.83165       49.11639
H         38.16799       48.79684       49.91958
N         37.40969       54.48122       49.89424
C         36.61497       55.62186       50.34668
C         36.54507       56.64682       49.23039
O         35.46465       57.15403       48.96122
C         37.22417       56.21013       51.64979
C         36.32684       56.04032       52.89379
C         35.90093       54.60108       53.23036
C         37.07499       53.66138       53.52156
N         36.58380       52.32306       53.85138
H         38.42462       54.62297       49.82548
H         35.55404       55.34658       50.52772
H         37.37427       57.30690       51.53612
H         38.23758       55.79237       51.83728
H         35.39868       56.63110       52.73135
H         36.85358       56.48020       53.76930
H         35.29401       54.18015       52.40312
H         35.24803       54.64490       54.12994
H         37.66872       54.05894       54.37400
H         37.73452       53.59372       52.63031
H         36.03464       51.93509       53.04940
H         37.39642       51.69386       54.04042
H         35.97806       52.36062       54.70350
N         37.64005       56.92921       48.47576
C         37.62237       57.80495       47.30887
C         36.56491       57.33280       46.31967
O         35.67380       58.11077       46.00758
C         39.04515       57.86589       46.69787
C         39.98295       58.59597       47.68584
C         41.43185       58.70700       47.30834
O         42.16446       59.35767       48.03454
O         41.95784       58.13839       46.20918
H         38.51951       56.45324       48.70863
H         37.34251       58.83622       47.62169
H         39.03366       58.42663       45.74751
H         39.38866       56.83778       46.47622
H         39.96245       58.11009       48.68066
H         39.59171       59.62681       47.80618
N         36.55496       56.05607       45.84697
C         35.50347       55.52072       45.00270
H         34.71874       56.27133       44.77012
H         35.93711       55.15172       44.05124
H         35.01433       54.67054       45.52651
H         37.30151       55.41424       46.12921
Ca        44.17840       58.56268       45.94138
O         44.25363       57.79255       49.21916
H         45.01472       58.42017       49.15110
H         43.64361       58.20691       49.87935
O         45.65646       55.70169       47.29986
H         45.33311       56.26359       46.55219
H         46.13165       56.32989       47.89715

Ca 1.0



