%chk=holoCaM.loop2.water1.frame241.chk
%nprocshared=20
%mem=10GB
%nosave
#b3lyp/svp scf=(tight,noincore,xqc) Test 
#IOP(5/87=12) Density=Current Pop=(MK,readradii) iop(6/33=2) iop(6/42=6)

holoCaM.loop2.water1.frame241 

   -2  1 
C         58.56270       98.47333       49.22035
C         57.62315       99.61384       48.97228
O         56.44157       99.37259       48.76807
H         59.59549       98.83442       49.41072
H         58.22095       97.90013       50.10752
H         58.57651       97.80702       48.33361
N         58.07772      100.89712       48.98597
C         57.19844      102.03897       48.79003
C         56.57816      101.99931       47.39964
O         57.31796      101.87377       46.43360
C         57.96749      103.35791       49.01854
C         57.02560      104.50629       49.23848
O         57.46333      105.59843       49.54910
O         55.69833      104.28570       49.23586
H         59.07761      101.06587       49.17812
H         56.41652      101.97627       49.57615
H         58.68248      103.55865       48.19146
H         58.54386      103.26930       49.96619
N         55.22619      102.09733       47.22739
C         54.56025      101.92543       45.94147
C         53.98962      103.21183       45.36171
O         53.60325      103.17528       44.20130
C         53.46125      100.87060       46.08845
H         54.64067      102.27368       48.04637
H         55.29976      101.56373       45.19491
H         52.97016      100.67297       45.11296
H         53.89387       99.92187       46.47064
H         52.69162      101.22263       46.81135
N         53.93767      104.38532       46.05859
C         53.58960      105.66249       45.43124
C         54.76278      106.64196       45.50456
O         54.62617      107.75163       45.00769
C         52.26541      106.23949       45.98840
C         52.26596      106.62763       47.43579
O         53.36609      106.48836       48.18481
O         51.25405      107.09012       47.93779
H         54.20265      104.39060       47.05255
H         53.39321      105.51542       44.34682
H         51.46272      105.48719       45.82947
H         52.00072      107.14625       45.40064
N         55.97011      106.28182       46.04428
C         57.15049      107.12754       46.00941
C         57.09606      108.36267       46.88403
O         58.05433      109.12081       46.82597
H         56.11260      105.33351       46.41598
H         57.33375      107.43003       44.95467
H         58.02935      106.53289       46.34259
N         56.04564      108.66087       47.70686
C         56.00612      109.91143       48.46484
C         57.11489      110.00771       49.50942
O         57.46839      111.11541       49.88740
C         54.62951      110.16724       49.11019
C         54.37197      109.31980       50.32731
N         54.16185      109.89931       51.53088
O         54.35713      108.10654       50.23218
H         55.24063      108.02610       47.74849
H         56.14782      110.72004       47.71338
H         53.82651      109.99863       48.35982
H         54.58585      111.23450       49.41253
H         54.17482      110.92281       51.64058
H         53.98216      109.32429       52.36043
N         57.67845      108.88395       50.04119
C         58.77477      108.89079       50.99629
C         58.45032      108.21242       52.31639
O         59.36922      108.08393       53.11254
H         57.33230      107.96797       49.73610
H         59.12369      109.92268       51.21486
H         59.62144      108.34241       50.52958
N         57.19518      107.77460       52.64473
C         56.88463      107.12355       53.92414
C         56.27974      105.74285       53.67252
O         56.17306      105.35383       52.51910
C         55.94902      108.01801       54.77681
C         56.47124      109.45832       54.88046
O         54.66032      108.03032       54.23532
H         56.41876      107.92534       51.98611
H         57.81241      106.98385       54.52091
H         55.90783      107.57844       55.80039
H         54.04540      108.32750       54.95676
H         56.48129      109.94220       53.87913
H         55.80519      110.05651       55.53726
H         57.49817      109.47507       55.30062
N         55.86704      104.94048       54.70162
C         55.30814      103.60345       54.49416
C         53.86996      103.51991       55.00116
O         53.63575      103.61929       56.19711
C         56.24451      102.54352       55.15150
C         57.62268      102.46513       54.43351
C         55.61440      101.14309       55.24308
C         57.57383      101.99160       52.96917
H         55.96808      105.27571       55.67084
H         55.25559      103.37471       53.42000
H         56.42859      102.85820       56.20342
H         58.26981      101.75668       54.99486
H         58.11619      103.45955       54.46311
H         55.34234      100.75513       54.24690
H         56.32327      100.43796       55.72619
H         54.70527      101.16316       55.87696
H         58.60543      101.92730       52.56654
H         57.11777      100.98437       52.87993
H         57.01887      102.69945       52.32379
N         52.85368      103.30483       54.10820
C         51.45500      103.07769       54.47493
C         51.27253      101.68627       55.07767
O         52.23076      100.93091       55.14272
C         50.56275      103.16642       53.21238
C         50.62273      104.51107       52.55206
O         50.21483      105.60755       53.21879
O         51.01112      104.61293       51.39903
H         53.08664      103.30012       53.10591
H         51.12872      103.86024       55.19518
H         49.50000      102.99605       53.47877
H         50.88045      102.38286       52.48667
N         50.05031      101.26539       55.51727
C         49.80729       99.91836       56.02859
C         50.01608       98.84978       54.94557
O         50.78477       97.93900       55.21327
C         48.40547       99.80659       56.67721
C         48.15935       98.44307       57.28485
C         48.94536       97.98527       58.35793
C         47.13429       97.61808       56.78771
C         48.70920       96.72724       58.92068
C         46.90413       96.35933       57.35200
C         47.69008       95.91472       58.41801
H         49.26373      101.93302       55.49766
H         50.53042       99.73291       56.85475
H         47.61344      100.03065       55.94667
H         48.30988      100.56891       57.48015
H         49.73622       98.60251       58.76420
H         46.51532       97.94521       55.96147
H         49.31574       96.38283       59.74837
H         46.11516       95.72842       56.96330
H         47.50871       94.94130       58.85532
N         49.39832       98.86899       53.71255
C         49.60650       97.85973       52.67263
C         51.06345       97.53356       52.43185
O         51.43223       96.36927       52.36184
C         49.04685       98.53257       51.40395
C         47.91070       99.34494       51.95804
C         48.53755       99.92835       53.21836
H         49.02188       96.94766       52.92523
H         49.77244       99.27654       50.99920
H         48.78778       97.83335       50.58095
H         47.48702      100.10378       51.26489
H         47.10787       98.63407       52.25513
H         49.17146      100.80065       52.97910
H         47.71360      100.22023       53.88556
N         51.93943       98.55621       52.27559
C         53.34509       98.41011       51.93291
C         54.06787       97.65263       53.03111
O         54.64530       96.61208       52.75037
C         53.94886       99.81430       51.69974
C         53.22931      100.55070       50.54145
C         53.59863      101.99788       50.45195
O         54.55638      102.51879       51.23659
O         52.98977      102.72530       49.68376
H         51.56172       99.50555       52.40890
H         53.43769       97.84628       50.97686
H         55.03629       99.74520       51.47537
H         53.81191      100.40469       52.62951
H         52.13459      100.55252       50.69322
H         53.42908      100.04095       49.57418
N         54.04107       98.10423       54.31617
C         54.65857       97.41259       55.42945
H         55.40498       98.07738       55.91043
H         53.87717       97.15642       56.17633
H         55.16614       96.47565       55.11960
H         53.53799       98.97347       54.52776
Ca        54.21646      105.41401       50.47402
O         52.91467      106.59970       52.60529
H         52.44235      107.46133       52.71854
H         52.89335      106.17588       53.49943

Ca 1.0



