%chk=holoCaM.loop3.water2.frame470.chk
%nprocshared=20
%mem=10GB
%nosave
#b3lyp/svp scf=(tight,noincore,xqc) Test 
#IOP(5/87=12) Density=Current Pop=(MK,readradii) iop(6/33=2) iop(6/42=6)

holoCaM.loop3.water2.frame470 

   0  1 
C         36.16948       54.19938       63.55134
C         36.32243       52.71365       63.64725
O         37.43906       52.21670       63.59938
H         35.66341       54.58010       64.46364
H         37.15899       54.69314       63.45430
H         35.55259       54.44557       62.66191
N         35.21902       51.93533       63.80483
C         35.28787       50.48682       63.91449
C         35.74223       49.89452       62.58797
O         35.01787       50.00512       61.60773
C         33.90076       49.95200       64.30120
C         33.85792       48.48977       64.57991
O         34.86853       47.80774       64.61581
O         32.66380       47.93039       64.80349
H         34.30197       52.40383       63.88135
H         36.00325       50.23809       64.72883
H         33.18838       50.17532       63.47762
H         33.54077       50.46608       65.21902
N         36.96777       49.31286       62.47229
C         37.53031       48.92615       61.18321
C         37.03836       47.56551       60.67319
O         37.28172       47.29480       59.50581
C         39.07221       49.06797       61.24510
C         39.77569       48.96708       59.88145
C         41.25591       49.37014       60.00312
C         42.04125       49.23237       58.68638
N         41.52914       50.10245       57.62509
H         37.58415       49.35190       63.29223
H         37.19717       49.69331       60.44777
H         39.50579       48.33245       61.95818
H         39.27740       50.08925       61.64015
H         39.27348       49.65989       59.17429
H         39.70350       47.92919       59.49545
H         41.74507       48.71816       60.75900
H         41.32645       50.42280       60.35797
H         42.02055       48.17414       58.34596
H         43.10085       49.50582       58.88979
H         40.56393       49.81871       57.34493
H         41.53463       51.10026       57.93832
H         42.14697       50.01040       56.78640
N         36.33952       46.66796       61.44568
C         35.80587       45.40579       60.90352
C         34.28673       45.28854       61.02061
O         33.69368       44.69941       60.12726
C         36.54161       44.13976       61.40799
C         36.42322       43.78220       62.86308
O         37.00983       42.79708       63.28083
O         35.74847       44.54827       63.72867
H         36.19009       46.88355       62.43899
H         36.00810       45.37509       59.80998
H         37.62288       44.25557       61.17427
H         36.16303       43.26811       60.82978
N         33.58539       45.81491       62.06907
C         32.12922       45.78071       62.16537
C         31.60367       45.01151       63.36782
O         30.39312       44.98447       63.53851
H         34.08951       46.29300       62.82208
H         31.67516       45.32312       61.26038
H         31.76637       46.82917       62.22371
N         32.42317       44.32657       64.21750
C         31.92682       43.49305       65.31534
C         31.19569       44.26044       66.42233
O         30.54480       43.61771       67.23369
C         33.06863       42.62020       65.90052
C         34.25870       43.37399       66.46018
N         35.29846       42.68973       66.98919
O         34.30569       44.59265       66.42162
H         33.42771       44.32712       64.02579
H         31.18626       42.79116       64.87156
H         33.45280       41.96550       65.08815
H         32.65196       41.96660       66.69635
H         35.28866       41.66015       67.02191
H         36.11772       43.19015       67.36425
N         31.27319       45.61498       66.53593
C         30.56777       46.40824       67.53718
C         31.49956       47.02414       68.57014
O         31.02072       47.77349       69.40959
H         31.88461       46.11408       65.89259
H         29.82668       45.79324       68.09212
H         30.00718       47.20841       67.00755
N         32.81747       46.68208       68.62797
C         33.73938       47.06952       69.69079
C         35.03695       47.60496       69.10491
O         35.53378       47.03055       68.14442
C         34.05848       45.81050       70.51524
C         32.82315       45.26248       71.19108
C         32.07299       44.24058       70.58469
C         32.41195       45.76902       72.43552
C         30.93281       43.73207       71.21484
C         31.27767       45.25092       73.06948
C         30.53455       44.22896       72.46056
O         29.44150       43.71667       73.06194
H         33.17619       46.00802       67.94598
H         33.29428       47.81872       70.38390
H         34.82324       46.03463       71.29127
H         34.49767       45.03516       69.84845
H         32.36655       43.84329       69.62094
H         32.97578       46.55667       72.91984
H         30.36050       42.94749       70.73595
H         30.97869       45.64249       74.03398
H         29.14014       44.02134       73.92994
N         35.68924       48.65141       69.69211
C         36.96389       49.18255       69.20768
C         38.04862       48.93139       70.25220
O         37.87143       49.30516       71.40368
C         36.84641       50.70064       68.88436
C         35.64764       50.96596       67.93697
C         38.16767       51.19906       68.25714
C         35.44738       52.44305       67.58932
H         35.27814       49.07987       70.53623
H         37.25609       48.67540       68.26043
H         36.66606       51.25632       69.83152
H         34.71395       50.62423       68.43286
H         35.76992       50.38551       67.00084
H         39.02661       51.00853       68.92901
H         38.35386       50.68240       67.29202
H         38.15201       52.29218       68.08233
H         36.29772       52.84035       66.99919
H         34.53473       52.55498       66.96749
H         35.32474       53.04369       68.51565
N         39.22296       48.33544       69.89457
C         40.32281       48.05854       70.81941
C         41.35354       49.18373       70.82466
O         41.18364       50.15780       70.10903
C         40.97364       46.71539       70.43618
O         41.53912       46.80293       69.15416
H         39.35902       48.10426       68.90275
H         39.92631       47.96717       71.85444
H         40.18715       45.92632       70.45900
H         41.76739       46.44199       71.16305
H         41.63781       45.87415       68.81986
N         42.44144       49.12187       71.64992
C         43.46893       50.16211       71.72939
C         44.25200       50.28293       70.43411
O         44.30150       51.36893       69.87372
C         44.44149       49.86775       72.87644
H         42.52559       48.30739       72.27698
H         42.98111       51.13522       71.96499
H         43.88635       49.82333       73.83715
H         44.96525       48.90090       72.72282
H         45.19817       50.67889       72.94887
N         44.89007       49.20016       69.89514
C         45.64695       49.24746       68.63986
C         44.77771       49.54619       67.41814
O         45.31651       49.62948       66.32279
C         46.35955       47.90666       68.41614
H         44.84142       48.30642       70.40824
H         46.42690       50.03556       68.72731
H         45.61807       47.08477       68.31291
H         46.98335       47.94333       67.49692
H         47.02700       47.68371       69.27511
N         43.43388       49.72534       67.52857
C         42.52851       49.96854       66.42142
C         42.04760       51.41249       66.42807
O         41.78410       51.93759       65.35522
C         41.38330       48.96315       66.58037
C         40.31982       49.00835       65.49289
C         39.31433       47.90909       65.68846
O         39.38277       47.11806       66.61696
O         38.37415       47.74149       64.76128
H         42.99221       49.65375       68.44736
H         43.04139       49.79087       65.44925
H         40.88799       49.13321       67.55912
H         41.83674       47.94581       66.57986
H         40.80308       48.85950       64.50408
H         39.79818       49.98870       65.49197
N         41.96751       52.13627       67.58249
C         41.59954       53.53464       67.63537
H         40.70243       53.65468       68.27701
H         42.43864       54.10897       68.08371
H         41.38462       53.95664       66.63242
H         42.19408       51.69967       68.48106
Ca        37.06126       45.96298       64.80099
O         38.98039       43.86607       65.63623
H         38.30966       43.14780       65.75698
H         39.78745       43.53569       66.10404
O         37.87412       45.04244       68.55174
H         37.40328       45.13370       69.41801
H         38.23644       44.12096       68.56201

Ca 1.0



