%chk=holoCaM-CaMKII.loop2.water2.frame305.chk
%nprocshared=20
%mem=10GB
%nosave
#b3lyp/svp scf=(tight,noincore,xqc) Test 
#IOP(5/87=12) Density=Current Pop=(MK,readradii) iop(6/33=2) iop(6/42=6)

holoCaM-CaMKII.loop2.water2.frame305 

   -2  1 
C         48.95378       47.00940       41.52989
C         50.14904       47.67871       42.15238
O         50.01447       48.28154       43.20667
H         48.17128       47.75753       41.29260
H         49.22808       46.47528       40.59405
H         48.54235       46.25860       42.23832
N         51.37032       47.57195       41.56415
C         52.60486       48.06731       42.16257
C         52.64032       49.59529       42.24406
O         52.46435       50.24799       41.22490
C         53.80136       47.55028       41.33407
C         55.11255       47.68254       42.04680
O         55.16279       48.12227       43.31544
O         56.13852       47.31911       41.49666
H         51.43270       47.03775       40.68293
H         52.68536       47.61372       43.17577
H         53.83428       48.07593       40.35510
H         53.67435       46.46321       41.14248
N         52.90710       50.22360       43.42754
C         52.97355       51.67495       43.60484
C         54.36725       52.15595       44.05462
O         54.48443       53.31466       44.42964
C         51.89739       52.07893       44.62297
H         53.07469       49.64245       44.25898
H         52.73217       52.21145       42.66117
H         50.89554       51.76704       44.25427
H         52.07904       51.59968       45.60820
H         51.87727       53.18238       44.75633
N         55.47704       51.35486       43.98148
C         56.82671       51.77209       44.41091
C         57.99280       50.89601       43.87671
O         59.12064       51.16282       44.26813
C         56.87117       51.85125       45.96174
C         56.64431       50.51516       46.60718
O         56.44826       50.43473       47.80912
O         56.56440       49.41718       45.84135
H         55.33695       50.42709       43.59455
H         57.02432       52.79093       44.01149
H         56.06530       52.53640       46.30121
H         57.83616       52.26747       46.32020
N         57.83338       49.89619       42.95281
C         58.93203       49.13920       42.35641
C         59.63012       48.10749       43.23758
O         60.53963       47.46786       42.72847
H         56.91644       49.72317       42.53715
H         59.68215       49.85507       41.95695
H         58.52811       48.57250       41.48971
N         59.29896       47.87927       44.54020
C         60.03718       46.94765       45.40329
C         59.79221       45.45139       45.12727
O         60.35414       44.64051       45.85127
C         59.80829       47.30512       46.89289
C         58.40973       47.13860       47.42317
N         58.14504       47.47295       48.70543
O         57.51433       46.71320       46.71411
H         58.56888       48.46127       44.96127
H         61.12400       47.13632       45.25507
H         60.09660       48.37012       47.03371
H         60.48647       46.68818       47.52148
H         58.88713       47.84103       49.31797
H         57.19746       47.37107       49.08727
N         59.01832       44.99829       44.09597
C         58.82678       43.58141       43.78610
C         57.92070       42.80688       44.73942
O         57.70975       41.62982       44.48399
H         58.61028       45.67365       43.43833
H         59.81879       43.08249       43.71476
H         58.34849       43.50857       42.78553
N         57.34637       43.37534       45.83733
C         56.46398       42.67163       46.76962
C         55.14302       43.40971       46.92530
O         55.15685       44.60768       47.16411
C         57.14581       42.55112       48.15254
C         58.31719       41.56918       48.10531
O         57.61178       43.79935       48.60192
H         57.55928       44.35455       46.05155
H         56.24367       41.63451       46.43067
H         56.42141       42.12141       48.88595
H         56.85112       44.25795       49.04302
H         58.76878       41.47562       49.11536
H         57.95656       40.56388       47.79460
H         59.09554       41.90985       47.39155
N         53.95397       42.73765       46.87293
C         52.67116       43.38828       47.15036
C         52.68221       43.88908       48.59450
O         52.95199       43.09884       49.48989
C         51.43938       42.43913       46.93723
C         51.43661       41.78541       45.52620
C         50.13438       43.24528       47.14477
C         50.24073       40.85749       45.27710
H         53.97677       41.72598       46.68529
H         52.54325       44.23298       46.43943
H         51.47743       41.62385       47.69391
H         52.34091       41.15784       45.40573
H         51.45122       42.56775       44.73771
H         49.23535       42.60113       47.09596
H         50.10473       43.71438       48.14435
H         50.04623       44.04086       46.37345
H         49.28647       41.42172       45.24637
H         50.35446       40.36154       44.29074
H         50.18257       40.07550       46.06410
N         52.34150       45.17419       48.89459
C         52.27969       45.70487       50.25493
C         50.83572       45.82305       50.69701
O         49.94489       45.47255       49.93287
C         52.96441       47.08805       50.31863
C         54.42442       47.02539       49.99864
O         54.79740       46.65277       48.90116
O         55.33126       47.41045       50.91689
H         52.03308       45.78751       48.12970
H         52.77463       45.01599       50.97511
H         52.86749       47.50920       51.34068
H         52.46855       47.78731       49.60937
N         50.51940       46.27007       51.94506
C         49.14460       46.38804       52.40585
C         48.36963       47.41183       51.57305
O         47.28296       47.06739       51.14424
C         49.06297       46.67201       53.92345
C         47.65419       46.50933       54.44752
C         47.01989       45.25272       54.39367
C         46.96520       47.59840       55.00638
C         45.72217       45.09266       54.88421
C         45.66460       47.43316       55.49527
C         45.04412       46.18206       55.43410
H         51.28283       46.50379       52.60031
H         48.67411       45.38930       52.26539
H         49.44823       47.67807       54.16353
H         49.70181       45.94281       54.46801
H         47.53010       44.39242       53.97893
H         47.43128       48.57400       55.06175
H         45.24418       44.12222       54.83975
H         45.13716       48.27522       55.92336
H         44.03903       46.05518       55.81466
N         48.85310       48.66223       51.25180
C         48.12727       49.62186       50.41375
C         47.85132       49.17538       48.97689
O         47.24073       49.94496       48.24490
C         49.05503       50.84750       50.37903
C         49.77197       50.74256       51.70575
C         50.07778       49.25135       51.74874
H         47.17638       49.86274       50.93742
H         49.83909       50.69989       49.59820
H         48.54197       51.81248       50.17837
H         50.66239       51.39831       51.80962
H         49.04578       50.98266       52.51632
H         50.90161       49.00982       51.04415
H         50.35978       48.96923       52.77546
N         48.29171       47.97944       48.48915
C         48.12965       47.53202       47.10957
C         47.27648       46.27633       47.00980
O         47.00933       45.84488       45.89749
C         49.51179       47.18531       46.53643
C         50.51633       48.32516       46.68164
C         51.89283       47.88828       46.31539
O         52.89644       48.72849       46.55136
O         52.12846       46.78343       45.85188
H         48.82257       47.36088       49.10524
H         47.65200       48.32905       46.49855
H         49.43614       46.87944       45.46973
H         49.90364       46.32231       47.11985
H         50.57502       48.63281       47.74680
H         50.22027       49.20475       46.07103
N         46.84294       45.60831       48.11608
C         46.06906       44.39297       48.02985
H         45.11017       44.59378       47.50975
H         46.64438       43.61706       47.48169
H         45.85251       44.01618       49.05275
H         47.07834       45.94141       49.05397
Ca        54.95895       48.00472       46.28470
O         56.01140       45.65409       44.39125
H         56.16134       45.05987       43.61405
H         56.65202       46.39692       44.26545
O         53.37321       44.92890       43.80693
H         52.39012       44.89644       43.91064
H         53.53734       44.63060       42.87766

Ca 1.0



