%chk=holoCaM-CaMKII.loop4.water2.frame59.chk
%nprocshared=20
%mem=10GB
%nosave
#b3lyp/svp scf=(tight,noincore,xqc) Test 
#IOP(5/87=12) Density=Current Pop=(MK,readradii) iop(6/33=2) iop(6/42=6)

holoCaM-CaMKII.loop4.water2.frame59 

   -3  1 
C          1.47501       46.91801       68.72366
C          2.49579       46.81036       67.62827
O          2.68933       47.77157       66.90162
H          0.47711       47.12293       68.28359
H          1.41072       45.97760       69.31218
H          1.75236       47.74307       69.41180
N          3.19656       45.65811       67.45857
C          4.20875       45.46448       66.42638
C          3.58043       45.54076       65.03772
O          2.60063       44.84854       64.79730
C          4.85521       44.08045       66.62596
C          6.05316       43.83199       65.76488
O          6.60908       42.61081       65.78342
O          6.54739       44.71552       65.08259
H          3.00904       44.88154       68.11251
H          5.00366       46.23452       66.55446
H          4.09454       43.29527       66.42526
H          5.20038       43.97176       67.67710
N          4.11698       46.33572       64.06659
C          3.54615       46.47964       62.72680
C          4.47980       45.82318       61.69957
O          4.04524       44.91167       61.01012
C          3.23420       47.98863       62.43947
C          2.32520       48.56678       63.56334
C          2.57341       48.15494       61.05906
C          1.96301       50.04724       63.41359
H          4.97345       46.85960       64.28764
H          2.57427       45.93978       62.66708
H          4.18274       48.56637       62.43544
H          2.86470       48.47900       64.52596
H          1.38349       47.97985       63.63348
H          1.60017       47.62060       61.02521
H          2.40166       49.22607       60.82580
H          3.23267       47.76100       60.25926
H          1.37860       50.37209       64.30211
H          2.87870       50.66940       63.34783
H          1.32851       50.22237       62.52170
N          5.77317       46.22936       61.54824
C          6.73077       45.63604       60.60041
C          7.24667       44.24602       61.00852
O          7.99871       43.66444       60.23797
C          7.91753       46.59926       60.34262
C          8.55039       47.07911       61.61453
O          8.55962       48.27537       61.85915
O          8.97075       46.21345       62.55475
H          6.07482       47.02141       62.11750
H          6.22568       45.52048       59.61655
H          7.52732       47.49065       59.79955
H          8.67239       46.11910       59.68513
N          6.86679       43.63031       62.16192
C          7.21632       42.25674       62.49957
C          8.68017       41.98512       62.80618
O          9.24131       41.11500       62.15516
H          6.21148       44.10882       62.78857
H          6.87835       41.59217       61.67308
H          6.64209       41.95571       63.39616
N          9.34266       42.61693       63.82586
C         10.68616       42.20913       64.26852
C         10.75318       41.81644       65.75296
O         11.78014       41.28262       66.15273
C         11.74522       43.26448       63.89560
C         11.48917       44.63009       64.46141
O         11.45013       44.82166       65.78889
O         11.36411       45.58555       63.71384
H          8.86968       43.39163       64.31195
H         10.98577       41.28626       63.72537
H         11.77927       43.33958       62.78690
H         12.74538       42.92044       64.23886
N          9.72401       42.02653       66.62491
C          9.71358       41.58210       68.01265
C          9.66153       42.72832       69.00676
O          9.48672       42.46064       70.18379
H          8.88783       42.52002       66.30595
H         10.59787       40.95643       68.26206
H          8.80944       40.94964       68.15217
N          9.86107       44.02156       68.61532
C          9.86436       45.16213       69.52988
C          8.89502       46.22835       69.03990
O          8.31435       46.07899       67.97755
C         11.29565       45.73118       69.62004
C         12.24654       44.74993       70.32597
C         13.65381       45.28738       70.38726
N         14.68517       44.58480       69.86161
O         13.86890       46.36091       70.93055
H         10.06462       44.21650       67.63196
H          9.53566       44.85818       70.54706
H         11.29285       46.67633       70.20440
H         11.66668       45.95528       68.59722
H         12.24417       43.77185       69.79973
H         11.88672       44.58588       71.36500
H         14.53021       43.66998       69.41316
H         15.64752       44.95058       69.91320
N          8.65145       47.33115       69.81572
C          7.71006       48.38162       69.43800
C          8.42058       49.73157       69.46848
O          8.83711       50.17256       70.52808
C          6.48943       48.35331       70.39962
C          5.47417       49.45902       70.07131
C          5.77873       46.98933       70.33350
H          9.11670       47.40675       70.73049
H          7.32476       48.20178       68.41071
H          6.84692       48.50880       71.44185
H          5.07963       49.33755       69.04077
H          4.62399       49.41912       70.78506
H          5.93827       50.46069       70.16699
H          5.40081       46.79360       69.30640
H          6.46734       46.16716       70.62035
H          4.92109       46.96706       71.03866
N          8.60114       50.43200       68.31213
C          9.25221       51.73988       68.23552
C          8.32745       52.82876       68.78468
O          7.20057       52.52500       69.13990
C          9.60249       52.00576       66.74476
C         10.47797       53.20498       66.49240
N         11.72105       53.27521       67.02285
O         10.07065       54.11260       65.78317
H          8.29433       49.99260       67.43920
H         10.19999       51.69328       68.81346
H          8.66015       52.09593       66.16231
H         10.16152       51.12947       66.35482
H         12.08928       52.51153       67.60810
H         12.32206       54.09234       66.84056
N          8.72348       54.13155       68.85355
C          7.82901       55.23099       69.22055
C          6.67958       55.33581       68.22763
O          5.52911       55.35201       68.64119
C          8.61121       56.56563       69.22333
C          7.71252       57.75565       69.48296
C          7.01211       57.88158       70.69463
C          7.55675       58.74488       68.49590
C          6.16868       58.97653       70.91164
C          6.71330       59.83678       68.71474
C          6.01506       59.95599       69.92423
O          5.19531       61.00315       70.14677
H          9.69529       54.36122       68.60542
H          7.42422       55.06251       70.24336
H          9.10671       56.68721       68.23449
H          9.41154       56.53014       69.99333
H          7.11487       57.13237       71.46908
H          8.08118       58.66855       67.55126
H          5.63129       59.06236       71.84764
H          6.60141       60.58699       67.94192
H          5.06014       61.69944       69.48795
N          6.94032       55.41222       66.89314
C          5.91959       55.54417       65.85501
C          4.87309       54.45935       65.98715
O          3.68767       54.76079       65.99238
C          6.56061       55.43577       64.44854
C          7.52668       56.58840       64.12995
C          8.12773       56.41793       62.76312
O          9.46244       56.30137       62.62362
O          7.41374       56.38946       61.77314
H          7.92529       55.33642       66.60670
H          5.41441       56.53215       65.93798
H          5.74978       55.44916       63.68571
H          7.10030       54.46525       64.36037
H          8.35174       56.62408       64.86997
H          6.98045       57.55481       64.16922
N          5.25986       53.16459       66.10184
C          4.33515       52.03962       66.16664
C          3.39076       52.18417       67.34527
O          2.18593       52.11769       67.14439
C          5.11448       50.70180       66.17977
C          5.97530       50.60577       64.90509
C          6.65132       49.29521       64.69568
O          6.45472       48.71355       63.64944
O          7.55049       48.78739       65.55803
H          6.27219       52.98604       66.14707
H          3.71722       52.02916       65.24056
H          4.37978       49.86722       66.18522
H          5.75898       50.61847       67.08112
H          6.77503       51.36720       64.89669
H          5.32367       50.79731       64.02288
N          3.86674       52.46184       68.58883
C          3.02053       52.70405       69.73966
H          1.94228       52.57455       69.50963
H          3.29719       52.00626       70.55590
H          3.17605       53.74690       70.09151
H          4.87798       52.55828       68.72119
Ca         8.73968       47.12627       64.60087
O         10.38094       49.72562       64.16966
H          9.52700       50.04427       63.78402
H         10.94161       49.49548       63.38722
O         11.68789       47.88832       66.27692
H         12.20390       48.22957       65.50440
H         12.27127       47.19020       66.66513

Ca 1.0



