%chk=holoCaM.loop2.water2.frame347.chk
%nprocshared=20
%mem=10GB
%nosave
#b3lyp/svp scf=(tight,noincore,xqc) Test 
#IOP(5/87=12) Density=Current Pop=(MK,readradii) iop(6/33=2) iop(6/42=6)

holoCaM.loop2.water2.frame347 

   -2  1 
C        107.84907       26.75217      103.74557
C        107.28899       26.31741      105.07271
O        106.39704       25.48491      105.12281
H        108.92100       26.45151      103.69989
H        107.31858       26.26727      102.90183
H        107.79518       27.85571      103.63685
N        107.83954       26.82019      106.20313
C        107.58157       26.32894      107.55164
C        106.16270       26.52508      108.10139
O        105.54465       27.55447      107.87336
C        108.58412       27.02432      108.48007
C        108.55248       26.46383      109.83304
O        108.30638       27.19058      110.78250
O        109.08731       25.23372      109.95626
H        108.58850       27.52222      106.07837
H        107.80563       25.23908      107.55474
H        108.40509       28.11554      108.50066
H        109.61721       26.84651      108.11693
N        105.67993       25.59319      108.98475
C        104.41980       25.65559      109.72544
C        104.62579       25.61311      111.25862
O        103.81429       26.20170      111.95919
C        103.53722       24.45968      109.32844
H        106.26678       24.77237      109.14714
H        103.85202       26.57353      109.45310
H        103.37750       24.43417      108.22921
H        104.00269       23.49872      109.63877
H        102.53964       24.53393      109.81635
N        105.60735       24.84470      111.84263
C        105.73481       24.57316      113.29214
C        107.05830       25.02430      113.94701
O        107.15374       24.94980      115.16475
C        105.50585       23.05845      113.57797
C        106.42645       22.08995      112.87118
O        107.30437       22.51411      111.97191
O        106.32047       20.89044      113.05296
H        106.26248       24.38250      111.21326
H        104.93686       25.13011      113.83193
H        104.47229       22.79618      113.27437
H        105.60486       22.88161      114.66987
N        108.09444       25.53017      113.22882
C        109.31532       26.09702      113.80667
C        110.31380       25.09216      114.34781
O        111.27331       25.51588      114.97739
H        107.96991       25.57089      112.22711
H        109.03631       26.82553      114.59850
H        109.86550       26.66033      113.02191
N        110.18592       23.75836      114.12347
C        111.10822       22.75101      114.65153
C        112.48703       22.68804      113.95976
O        113.19534       21.71630      114.18938
C        110.38561       21.38503      114.68198
C        110.00004       20.82349      113.34443
N        109.28396       19.68346      113.28978
O        110.31642       21.38566      112.30947
H        109.35638       23.43637      113.60545
H        111.29016       22.95854      115.72803
H        109.45123       21.51816      115.27240
H        111.01160       20.63332      115.20912
H        108.97597       19.20620      114.14954
H        109.03308       19.28759      112.38036
N        112.97412       23.69212      113.16399
C        114.30564       23.66954      112.56342
C        114.43990       22.71277      111.39301
O        115.53244       22.61913      110.85072
H        112.42844       24.54712      113.02119
H        115.05947       23.43098      113.34856
H        114.54594       24.68154      112.17237
N        113.39051       21.95648      110.96120
C        113.47978       20.95049      109.91407
C        112.28996       21.01027      108.95554
O        111.15658       21.14414      109.39477
C        113.52432       19.53995      110.56458
C        114.82318       19.33195      111.34431
O        112.46228       19.31540      111.46098
H        112.49744       22.02152      111.45498
H        114.42201       21.05176      109.32711
H        113.50932       18.77754      109.75248
H        111.60892       19.51353      111.00724
H        115.70800       19.52086      110.70031
H        114.86139       20.00655      112.22577
H        114.86843       18.28291      111.70566
N        112.47327       20.77302      107.62764
C        111.36589       20.51381      106.70364
C        110.65028       19.20618      107.08221
O        111.28894       18.16372      107.11972
C        111.89665       20.51098      105.22806
C        112.17247       21.98493      104.79904
C        110.93384       19.82263      104.24317
C        112.55037       22.16543      103.32847
H        113.44047       20.68768      107.27673
H        110.62074       21.32620      106.77040
H        112.83486       19.91402      105.17664
H        112.98117       22.40421      105.43598
H        111.26041       22.60186      104.95519
H        110.75432       18.76955      104.54043
H        109.97227       20.36512      104.16799
H        111.40681       19.75277      103.24107
H        112.79193       23.23156      103.13328
H        113.42076       21.53254      103.06524
H        111.68691       21.91028      102.67619
N        109.29384       19.19893      107.29397
C        108.48443       17.99550      107.50112
C        107.86529       17.57194      106.16849
O        108.10929       18.23206      105.17686
C        107.31331       18.25610      108.48890
C        107.66451       18.97756      109.75009
O        108.03908       20.13892      109.71556
O        107.44916       18.37943      110.93381
H        108.78233       20.07503      107.16775
H        109.12744       17.17724      107.89510
H        106.86602       17.27502      108.76449
H        106.52504       18.86580      107.99797
N        107.03878       16.49059      106.07266
C        106.39330       16.04914      104.82918
C        105.45421       17.08977      104.19516
O        105.68170       17.37361      103.02666
C        105.66755       14.70714      105.06527
C        104.85358       14.22689      103.88023
C        105.44921       13.93483      102.63823
C        103.46454       14.06311      104.02515
C        104.66244       13.48575      101.56840
C        102.68526       13.61761      102.95577
C        103.28272       13.32750      101.72825
H        106.87875       15.93512      106.92603
H        107.19101       15.83886      104.08022
H        105.00313       14.81478      105.94570
H        106.42613       13.93412      105.32008
H        106.51600       14.05008      102.49544
H        102.98152       14.28114      104.96907
H        105.11924       13.25767      100.61367
H        101.61711       13.49620      103.08184
H        102.67527       12.97941      100.90232
N        104.38073       17.68890      104.81304
C        103.49430       18.61817      104.11171
C        104.19833       19.90111      103.70754
O        103.68217       20.61834      102.86210
C        102.34708       18.85763      105.09800
C        103.03646       18.69031      106.43923
C        103.97562       17.50517      106.18939
H        103.08976       18.14898      103.18727
H        101.78539       19.80869      104.95734
H        101.63097       18.01179      105.00643
H        103.65954       19.59879      106.60112
H        102.35892       18.57048      107.31203
H        104.81521       17.57304      106.90823
H        103.45488       16.52938      106.28089
N        105.38095       20.25239      104.26977
C        106.16250       21.40766      103.85772
C        106.88785       21.06597      102.56646
O        106.84819       21.84591      101.62667
C        107.14311       21.78206      104.98597
C        106.35324       22.11091      106.27677
C        107.20808       22.36483      107.47139
O        108.41950       22.38767      107.38993
O        106.62363       22.51273      108.67048
H        105.75859       19.66495      105.02709
H        105.51052       22.30025      103.72039
H        107.75085       22.66441      104.68537
H        107.82820       20.92967      105.17251
H        105.71246       21.25279      106.55810
H        105.69875       22.99345      106.11272
N        107.52300       19.86511      102.44653
C        108.21183       19.39712      101.26506
H        109.25050       19.11428      101.53952
H        107.69636       18.48886      100.88280
H        108.24197       20.16024      100.46316
H        107.48291       19.20987      103.22740
Ca       108.77106       23.09450      110.49228
O        110.24950       24.36321      107.44005
H        110.51358       25.11857      106.86305
H        110.43801       23.57044      106.88725
O        111.39428       24.20461      110.51272
H        111.41993       25.10208      110.92901
H        111.51960       24.37854      109.54802

Ca 1.0



