%chk=holoCaM.loop4.water3.frame406.chk
%nprocshared=20
%mem=10GB
%nosave
#b3lyp/svp scf=(tight,noincore,xqc) Test 
#IOP(5/87=12) Density=Current Pop=(MK,readradii) iop(6/33=2) iop(6/42=6)

holoCaM.loop4.water3.frame406 

   -3  1 
C         86.58965       68.38502       -0.14519
C         86.27223       67.82700        1.20854
O         85.12163       67.91177        1.61268
H         87.66071       68.24953       -0.40113
H         85.97203       67.86723       -0.90903
H         86.35190       69.46957       -0.16172
N         87.24209       67.25336        1.97781
C         86.97836       66.70505        3.30460
C         88.28770       66.29902        3.96936
O         89.02001       65.49400        3.40527
C         86.03630       65.47893        3.22379
C         85.51978       65.05482        4.57159
O         84.83181       64.05190        4.66628
O         85.74390       65.80646        5.66503
H         88.20798       67.23817        1.61277
H         86.48715       67.50467        3.90426
H         86.57821       64.63732        2.74055
H         85.13825       65.69629        2.61343
N         88.64312       66.82576        5.17368
C         89.91289       66.56742        5.84637
C         89.69194       65.82354        7.17861
O         90.66345       65.39758        7.77706
C         90.62666       67.94975        6.09027
C         90.64738       68.82065        4.79945
C         92.05882       67.79831        6.64648
C         91.05726       70.27763        5.05164
H         87.98751       67.47922        5.62080
H         90.55070       65.92430        5.19939
H         90.01099       68.49763        6.83928
H         89.62616       68.88291        4.37591
H         91.30275       68.36246        4.02854
H         92.51242       68.78538        6.86194
H         92.08177       67.26201        7.61139
H         92.70264       67.26367        5.91595
H         90.38645       70.73809        5.81009
H         92.10646       70.36593        5.39219
H         90.95949       70.85765        4.10966
N         88.44233       65.69868        7.73250
C         88.21328       65.23065        9.10247
C         87.07755       64.22066        9.26644
O         86.88922       63.75448       10.38539
C         87.94098       66.46306        9.98374
C         86.74238       67.30656        9.58678
O         85.94350       67.00804        8.52915
O         86.50813       68.30265       10.24412
H         87.64841       66.09720        7.23767
H         89.13360       64.74367        9.49363
H         88.84244       67.11490        9.94009
H         87.82186       66.13742       11.04058
N         86.27905       63.82950        8.23933
C         85.21955       62.83932        8.37201
C         84.01857       63.22069        9.23432
O         83.13439       62.38046        9.33119
H         86.46229       64.18964        7.29612
H         85.66149       61.90042        8.77011
H         84.82209       62.61993        7.35743
N         83.87668       64.41708        9.88599
C         82.70075       64.71228       10.71902
C         81.40621       64.93529        9.91818
O         80.39270       65.23232       10.53688
C         82.97151       65.87292       11.71717
C         83.19848       67.23326       11.13824
O         83.19727       67.40817        9.93958
O         83.40304       68.27951       11.95996
H         84.63586       65.10914        9.84179
H         82.53111       63.84104       11.38943
H         83.86138       65.61565       12.32947
H         82.10019       65.95493       12.40286
N         81.33822       64.77452        8.56189
C         80.11075       64.93951        7.79495
C         79.72538       66.38651        7.55206
O         78.71282       66.59944        6.90004
H         82.16195       64.45673        8.04084
H         79.28260       64.38048        8.28516
H         80.25824       64.49032        6.78873
N         80.47472       67.42969        8.01806
C         80.14777       68.82958        7.78688
C         81.35344       69.56160        7.12574
O         82.39437       69.75315        8.04464
C         79.72999       69.48188        9.12716
C         78.46794       68.82445        9.71399
C         77.99526       69.48230       10.98882
N         76.87473       69.03280       11.59864
O         78.60897       70.42231       11.47408
H         81.30537       67.23503        8.57911
H         79.28774       68.91157        7.08525
H         79.49823       70.55355        8.97001
H         80.56336       69.40443        9.86041
H         78.66415       67.75155        9.92606
H         77.64807       68.89632        8.96676
H         76.34110       68.24528       11.20211
H         76.53581       69.47605       12.46536
N         80.92517       70.85789        6.56564
C         81.97611       71.61495        5.85911
C         82.58412       72.68964        6.76778
O         81.87922       73.62005        7.13656
C         81.33845       72.28460        4.60425
C         82.35463       73.11204        3.80197
C         80.69963       71.23996        3.67669
H         80.40293       71.46362        7.23672
H         82.76984       70.91478        5.51000
H         80.52854       72.97201        4.93962
H         83.19216       72.47572        3.44683
H         81.86013       73.58259        2.92561
H         82.75713       73.93633        4.41783
H         81.46528       70.52977        3.29925
H         79.90830       70.67033        4.20766
H         80.21962       71.74525        2.81068
N         83.89332       72.63736        7.14990
C         84.54797       73.71444        7.90261
C         84.82070       74.89690        6.97783
O         84.60129       74.78201        5.78203
C         85.86433       73.16613        8.51722
C         86.65639       74.09936        9.40160
N         86.09802       74.68702       10.48496
O         87.83618       74.29619        9.15682
H         84.44344       71.80672        6.88831
H         83.88031       74.02301        8.73688
H         86.52049       72.78290        7.70493
H         85.59366       72.32198        9.16022
H         85.11018       74.52808       10.72606
H         86.65999       75.31173       11.08289
N         85.30980       76.07338        7.45936
C         85.71528       77.17804        6.59157
C         86.90954       76.76125        5.74209
O         86.97276       77.11126        4.57355
C         86.01575       78.44970        7.42355
C         87.26201       78.36232        8.27244
C         87.17770       78.11522        9.65096
C         88.52678       78.54052        7.68339
C         88.34121       78.02240       10.42119
C         89.68599       78.45323        8.45374
C         89.59746       78.18907        9.82665
O         90.70990       78.09614       10.58176
H         85.40547       76.18640        8.47658
H         84.85716       77.45005        5.93603
H         85.12503       78.63695        8.06326
H         86.11140       79.33632        6.75904
H         86.21448       77.97836       10.12628
H         88.61533       78.74802        6.62384
H         88.26555       77.81846       11.48130
H         90.65038       78.58948        7.98050
H         91.59509       78.20615       10.20573
N         87.90508       76.00533        6.29603
C         89.09924       75.55340        5.58631
C         88.76914       74.56337        4.46272
O         89.65793       74.23792        3.68937
C         90.06679       74.90248        6.61577
C         91.49976       74.59827        6.14236
C         92.29666       75.84554        5.86542
O         91.98859       76.59686        4.95514
O         93.37470       76.13080        6.62134
H         87.81811       75.77301        7.29167
H         89.56704       76.46240        5.15892
H         89.60165       73.95510        6.97013
H         90.16390       75.57359        7.49861
H         91.51095       73.92803        5.26062
H         92.00620       74.05473        6.97008
N         87.51307       74.04644        4.31222
C         87.11902       73.10797        3.26622
C         86.12287       73.74199        2.30147
O         85.83198       73.12492        1.28626
C         86.45639       71.87623        3.91815
C         87.37773       71.17522        4.92740
C         86.66898       70.12280        5.73465
O         87.32603       69.50341        6.73131
O         85.49420       69.85964        5.54042
H         86.78756       74.30649        4.98334
H         88.00841       72.80198        2.67221
H         86.13026       71.14635        3.14331
H         85.55197       72.23554        4.45978
H         87.76368       71.91556        5.65659
H         88.23376       70.72639        4.38663
N         85.54522       74.95368        2.55249
C         84.61006       75.60947        1.66618
H         83.63856       75.73325        2.18957
H         85.00470       76.61551        1.40922
H         84.44519       75.04259        0.72815
H         85.74501       75.45094        3.42250
Ca        84.26218       68.38996        7.77094
O         83.65562       68.08757        4.20925
H         83.99779       68.88525        3.73526
H         82.68846       68.07904        4.00191
O         84.47658       70.29424        9.70444
H         83.80630       70.40634       10.42015
H         85.34845       70.38649       10.15868
O         82.60523       66.19400        6.05794
H         82.91185       65.25652        5.98991
H         81.82172       66.23771        5.45469

Ca 1.0



