%chk=holoCaM.loop1.water2.frame459.chk
%nprocshared=20
%mem=10GB
%nosave
#b3lyp/svp scf=(tight,noincore,xqc) Test 
#IOP(5/87=12) Density=Current Pop=(MK,readradii) iop(6/33=2) iop(6/42=6)

holoCaM.loop1.water2.frame459 

   0  1 
C         18.68663       84.07999       31.70858
C         18.02421       85.30996       31.18036
O         16.80951       85.41941       31.28697
H         19.41678       84.36470       32.49478
H         17.93138       83.39735       32.15514
H         19.20771       83.55572       30.88284
N         18.76621       86.30852       30.62138
C         18.13875       87.53881       30.17674
C         17.25504       87.26978       28.96874
O         17.75218       86.86992       27.92491
C         19.16657       88.63494       29.86850
C         18.48730       89.97017       29.77252
O         19.15530       90.97291       29.59213
O         17.15605       90.08054       29.97661
H         19.79270       86.21184       30.58136
H         17.54339       87.90467       31.04588
H         19.73595       88.40183       28.94190
H         19.88502       88.70800       30.71406
N         15.91224       87.41562       29.08210
C         14.96070       87.03375       28.04971
C         14.97954       87.96239       26.83994
O         15.01940       87.44828       25.73084
C         13.56548       86.91157       28.69332
C         12.51205       86.28173       27.77040
C         11.25729       85.82872       28.54084
C         10.52391       86.96256       29.27288
N          9.34263       86.44893       29.96698
H         15.54574       87.70825       29.99882
H         15.20670       85.99847       27.71866
H         13.21627       87.89685       29.05842
H         13.68654       86.22750       29.56420
H         12.93957       85.36391       27.30972
H         12.24833       86.99059       26.95693
H         11.55454       85.05553       29.28466
H         10.56027       85.35424       27.81686
H         10.21722       87.74156       28.54206
H         11.19452       87.42885       30.02339
H          9.62266       85.72211       30.66603
H          8.87140       87.23433       30.47108
H          8.67256       86.03490       29.27913
N         14.94903       89.32606       26.96312
C         14.82945       90.22873       25.80872
C         16.11664       90.97924       25.45842
O         16.09751       91.73801       24.49840
C         13.62989       91.18354       26.00668
C         13.80043       92.20546       27.10106
O         14.94221       92.29173       27.80769
O         12.89492       92.98974       27.33364
H         14.99477       89.73378       27.90848
H         14.59389       89.63322       24.89945
H         12.72607       90.57234       26.22190
H         13.44722       91.73761       25.06013
N         17.28626       90.76661       26.12456
C         18.55922       91.33757       25.70343
C         18.67193       92.83576       25.89406
O         18.96633       93.53827       24.93767
H         17.30863       90.09738       26.90694
H         18.75340       91.06354       24.64202
H         19.36642       90.88054       26.31484
N         18.51662       93.37830       27.13236
C         18.78376       94.78230       27.46641
C         19.84484       94.89313       28.57708
O         20.10810       95.99884       29.02826
C         17.45327       95.50954       27.79662
C         16.70185       94.93335       28.95433
O         17.29868       94.02118       29.72357
O         15.53730       95.23796       29.15405
H         18.22172       92.74318       27.88714
H         19.19172       95.32182       26.58384
H         16.80895       95.40129       26.89666
H         17.61786       96.59398       27.97134
N         20.53598       93.79626       29.02155
C         21.66028       93.84708       29.94618
C         21.30877       93.65611       31.41290
O         22.24049       93.51961       32.19174
H         20.38983       92.89213       28.55485
H         22.27152       94.76197       29.78617
H         22.32329       92.99015       29.69073
N         20.02449       93.64316       31.87993
C         19.68701       93.41324       33.29259
C         18.62526       92.32012       33.43095
O         18.14602       91.82320       32.42571
C         19.22092       94.73491       33.95662
C         20.33897       95.78856       33.99953
O         18.07495       95.25204       33.33186
H         19.25830       93.83142       31.22294
H         20.58201       93.06480       33.85256
H         18.96016       94.53023       35.01645
H         18.34858       95.64193       32.46048
H         20.65920       96.07629       32.97595
H         19.97693       96.69775       34.52487
H         21.21749       95.39127       34.55136
N         18.21766       91.89144       34.66732
C         17.17465       90.88415       34.87719
C         16.02548       91.49210       35.67905
O         16.22207       91.88557       36.81969
C         17.77149       89.60616       35.55463
C         18.68281       88.87124       34.53114
C         16.66664       88.66133       36.06698
C         19.29342       87.56180       35.03981
H         18.66327       92.29621       35.50333
H         16.75243       90.55990       33.90716
H         18.36494       89.90873       36.44606
H         19.51280       89.54733       34.23609
H         18.09409       88.62713       33.61824
H         17.09503       87.79220       36.60279
H         16.03597       89.16828       36.82061
H         16.03908       88.30104       35.23246
H         19.94918       87.13261       34.25349
H         19.89097       87.73837       35.95742
H         18.50924       86.80314       35.24483
N         14.77901       91.57557       35.12037
C         13.59338       92.08102       35.82132
C         13.13467       91.10660       36.90175
O         13.74181       90.06503       37.07113
C         12.40954       92.31909       34.83269
C         12.74581       93.31543       33.72265
O         11.93036       91.11595       34.29074
H         14.67974       91.27356       34.14286
H         13.84010       93.06439       36.27829
H         11.56672       92.77887       35.38766
H         12.57167       90.81277       33.60106
H         13.54308       92.90941       33.07214
H         11.84618       93.49161       33.09641
H         13.07583       94.28168       34.15750
N         12.03224       91.37336       37.65488
C         11.46390       90.43098       38.61750
C         10.94578       89.18188       37.89704
O         11.30627       88.07944       38.28263
C         10.32953       91.12039       39.42030
C          9.77242       90.21648       40.52397
O         10.83511       92.28006       40.03667
H         11.56514       92.28207       37.52527
H         12.24784       90.14716       39.35622
H          9.48512       91.38051       38.73698
H         10.54514       93.06034       39.49550
H          8.98348       90.75917       41.08753
H          9.32634       89.29343       40.10025
H         10.57999       89.93692       41.23517
N         10.10314       89.29822       36.82762
C          9.52996       88.16753       36.08437
C         10.60441       87.22948       35.56237
O         10.54942       86.04338       35.85651
C          8.68008       88.67897       34.89566
C          7.40910       89.40281       35.36774
C          6.61212       89.96445       34.18072
C          5.32292       90.68477       34.61542
N          4.34692       89.77047       35.21335
H          9.87290       90.25398       36.51737
H          8.86671       87.57701       36.75571
H          8.35873       87.81485       34.27125
H          9.29805       89.35176       34.25950
H          7.66577       90.24591       36.04199
H          6.79729       88.66944       35.93224
H          6.35527       89.15317       33.46523
H          7.25427       90.70264       33.65103
H          4.86555       91.14832       33.71350
H          5.56550       91.50119       35.33168
H          4.70385       89.37322       36.11039
H          3.46975       90.29958       35.42184
H          4.12168       88.99821       34.54474
N         11.62541       87.70268       34.80118
C         12.72626       86.88087       34.29885
C         13.38483       86.13300       35.44575
O         13.50249       84.91799       35.36958
C         13.75122       87.77568       33.56718
C         13.17957       88.34320       32.25530
C         14.10900       89.32180       31.59087
O         13.77120       89.86509       30.55231
O         15.30754       89.61583       32.12589
H         11.63823       88.71299       34.61841
H         12.34673       86.12547       33.57400
H         14.66149       87.18662       33.31509
H         14.03837       88.61003       34.24326
H         12.22061       88.86532       32.44016
H         12.98203       87.50010       31.56316
N         13.77720       86.79413       36.56630
C         14.34148       86.14993       37.73393
H         15.32840       86.59964       37.96396
H         13.66606       86.31437       38.60068
H         14.47080       85.05687       37.59420
H         13.62669       87.80426       36.61272
Ca        16.34285       92.12013       30.29013
O         15.40528       94.37116       32.34224
H         16.15465       94.75520       31.82969
H         14.60942       94.83660       31.98348
O         12.69689       92.82889       30.51513
H         13.53845       92.58984       30.05443
H         12.74143       93.81318       30.61004

Ca 1.0



