%chk=holoCaM-CaMKII.loop1.water2.frame148.chk
%nprocshared=20
%mem=10GB
%nosave
#b3lyp/svp scf=(tight,noincore,xqc) Test 
#IOP(5/87=12) Density=Current Pop=(MK,readradii) iop(6/33=2) iop(6/42=6)

holoCaM-CaMKII.loop1.water2.frame148 

   0  1 
C         96.18933       12.50046       54.11379
C         95.56960       13.29446       52.99865
O         95.48921       14.50800       53.10614
H         97.23515       12.83375       54.27572
H         95.60584       12.64904       55.04610
H         96.20153       11.41348       53.88148
N         95.10432       12.66249       51.88835
C         94.48348       13.34477       50.75595
C         93.21515       14.06988       51.20963
O         92.35513       13.42759       51.79619
C         94.17216       12.28333       49.67288
C         93.68070       12.82886       48.36841
O         93.40281       12.05808       47.46754
O         93.57076       14.14747       48.16140
H         95.20512       11.63550       51.84692
H         95.21529       14.06611       50.32706
H         93.42131       11.56550       50.06787
H         95.10626       11.72325       49.44431
N         93.03058       15.40427       50.96267
C         91.85782       16.16048       51.41986
C         90.92204       16.57187       50.28461
O         89.86265       17.10458       50.58707
C         92.31639       17.44682       52.14909
C         93.08502       17.23067       53.45959
C         92.18488       16.65099       54.55997
C         92.90300       16.61866       55.91397
N         92.00890       16.12333       56.96061
H         93.74898       15.90662       50.41903
H         91.23415       15.53445       52.09151
H         91.43831       18.08768       52.38636
H         92.96378       18.02421       51.45127
H         93.43435       18.23199       53.79644
H         93.97938       16.59586       53.29454
H         91.86030       15.62439       54.28989
H         91.28530       17.29749       54.66242
H         93.23381       17.64781       56.18088
H         93.80104       15.96562       55.84894
H         91.16955       16.74355       57.03896
H         91.70457       15.14707       56.74196
H         92.51449       16.12702       57.87553
N         91.23169       16.38125       48.97294
C         90.36317       16.77629       47.86153
C         89.99412       15.60146       46.96048
O         89.29036       15.82323       45.98449
C         91.00709       17.95407       47.09253
C         92.38863       17.70926       46.54448
O         93.03225       18.65307       46.11714
O         92.95633       16.49090       46.60061
H         92.14037       15.97169       48.74893
H         89.39663       17.17149       48.24532
H         91.09749       18.78557       47.82722
H         90.33822       18.30397       46.27681
N         90.36414       14.31771       47.24900
C         89.92197       13.16940       46.47059
C         90.53358       13.04754       45.08711
O         90.18044       12.10073       44.39792
H         90.90364       14.11806       48.10230
H         88.81346       13.19192       46.39367
H         90.20150       12.24327       47.01939
N         91.47167       13.91783       44.61154
C         92.10390       13.77059       43.29727
C         93.00410       12.53039       43.18042
O         93.55905       12.31330       42.11231
C         92.89179       15.05401       42.93896
C         94.04406       15.37952       43.85350
O         94.69628       16.39088       43.65274
O         94.36621       14.58183       44.88974
H         91.73613       14.72386       45.19084
H         91.29741       13.68430       42.53585
H         92.18323       15.91093       42.96049
H         93.28315       14.96529       41.90233
N         93.19594       11.67421       44.22432
C         94.04950       10.50042       44.18107
C         95.50293       10.87508       44.05716
O         96.19898       10.29015       43.24394
H         92.72132       11.84155       45.11609
H         93.72848        9.79938       43.38025
H         93.94772        9.97013       45.15369
N         96.02664       11.79937       44.90932
C         97.43864       12.18774       44.99995
C         97.67572       13.02693       46.26313
O         96.73210       13.52617       46.86330
C         97.97917       12.98300       43.76596
C         98.15929       12.21059       42.45219
O         97.20901       14.13209       43.53823
H         95.36314       12.19083       45.59219
H         98.03000       11.25609       45.14093
H         99.01071       13.30928       44.02336
H         96.33283       13.83409       43.17932
H         98.68704       12.85769       41.71905
H         98.77429       11.30081       42.61842
H         97.19309       11.95104       41.98236
N         98.93725       13.15991       46.76122
C         99.24384       13.85504       48.00888
C        100.28582       14.92228       47.73373
O        101.36432       14.59212       47.25790
C         99.73305       12.82625       49.07459
C         98.61105       11.78770       49.35316
C        100.14960       13.53862       50.37845
C         99.02656       10.65678       50.29543
H         99.71340       12.69047       46.26830
H         98.33577       14.34349       48.42772
H        100.62306       12.29406       48.67003
H         98.31314       11.30369       48.39942
H         97.71728       12.30029       49.77355
H         99.29089       14.08691       50.82119
H        100.54581       12.82269       51.12463
H        100.97275       14.25164       50.18544
H         99.26650       11.03255       51.30965
H         98.18468        9.93995       50.39854
H         99.90365       10.11634       49.88064
N        100.03909       16.22756       48.04280
C        101.03944       17.27946       47.88076
C        101.89703       17.37406       49.12877
O        101.63977       16.66653       50.08707
C        100.36337       18.64251       47.58226
C         99.48921       18.57545       46.33217
O         99.57763       19.03933       48.67660
H         99.14248       16.46851       48.49084
H        101.70509       17.02972       47.02451
H        101.16586       19.39480       47.40493
H         99.44215       20.01964       48.59600
H         99.06513       19.57806       46.11556
H        100.08489       18.24396       45.45579
H         98.64945       17.87265       46.50256
N        102.94561       18.23723       49.19007
C        103.75765       18.41083       50.39216
C        102.88832       18.93564       51.53016
O        102.93457       18.38428       52.62049
C        104.94385       19.36122       50.10044
C        105.88242       19.48162       51.30887
O        105.67539       18.84540       49.01655
H        103.16732       18.79788       48.35322
H        104.20000       17.42949       50.68033
H        104.53920       20.36684       49.83758
H        106.19243       19.59891       48.62883
H        106.28954       18.48319       51.58048
H        106.73332       20.15028       51.05953
H        105.35239       19.90671       52.18587
N        102.03254       19.97633       51.31498
C        101.15144       20.54971       52.33282
C        100.28641       19.48649       52.99300
O        100.30364       19.37523       54.21068
C        100.25651       21.63440       51.67606
C         99.29817       22.36264       52.63618
C        100.04068       23.16806       53.70975
C         99.06225       23.94576       54.59710
N         99.78362       24.71188       55.61276
H        101.99453       20.37035       50.36164
H        101.78706       21.02540       53.10855
H         99.64020       21.16001       50.88087
H        100.90375       22.39369       51.18494
H         98.60594       21.63466       53.11259
H         98.68558       23.06544       52.02894
H        100.72972       23.88647       53.21389
H        100.63175       22.48531       54.35416
H         98.36759       23.23463       55.09723
H         98.46178       24.64235       53.97016
H        100.42320       25.40169       55.15506
H         99.09582       25.22922       56.20600
H        100.33916       24.06748       56.22136
N         99.51182       18.66556       52.23622
C         98.63712       17.62360       52.77488
C         99.42131       16.66692       53.65515
O         99.04820       16.50105       54.80867
C         97.89956       16.92371       51.60381
C         96.87749       17.92141       51.01731
C         96.17144       17.51605       49.76172
O         95.31094       18.26314       49.32365
O         96.45140       16.39044       49.08099
H         99.56829       18.78263       51.21481
H         97.85946       18.08572       53.42598
H         97.34411       16.02986       51.96003
H         98.64072       16.59285       50.84489
H         97.36483       18.88924       50.78299
H         96.10550       18.10419       51.79784
N        100.55422       16.06340       53.20961
C        101.39840       15.23133       54.04398
H        102.40087       15.70355       54.12926
H        100.99278       15.10605       55.07031
H        101.50969       14.23038       53.58092
H        100.86359       16.23781       52.25003
Ca        95.09749       16.27515       47.27850
O         96.06942       19.25240       46.25146
H         96.59663       19.79019       45.60936
H         95.60401       18.58675       45.68613
O         97.71784       16.57370       44.58270
H         97.46530       17.48834       44.30234
H         96.95517       16.26020       45.13082

Ca 1.0



