%chk=holoCaM.loop4.water3.frame57.chk
%nprocshared=20
%mem=10GB
%nosave
#b3lyp/svp scf=(tight,noincore,xqc) Test 
#IOP(5/87=12) Density=Current Pop=(MK,readradii) iop(6/33=2) iop(6/42=6)

holoCaM.loop4.water3.frame57 

   -3  1 
C        109.88930       -5.03660       28.30239
C        109.07436       -4.82856       29.54175
O        108.08108       -5.51989       29.71183
H        110.90161       -5.38798       28.59486
H        109.42535       -5.81556       27.65785
H        109.97364       -4.09326       27.72739
N        109.44091       -3.89445       30.46759
C        108.76395       -3.76309       31.75444
C        109.20390       -2.49982       32.49608
O        110.38987       -2.32622       32.74135
C        109.05957       -5.02653       32.59156
C        108.46287       -4.97244       33.95973
O        107.25959       -4.83727       34.10714
O        109.26458       -5.09291       35.03350
H        110.25089       -3.28940       30.26055
H        107.66880       -3.69610       31.58319
H        110.15978       -5.15400       32.68886
H        108.65522       -5.92580       32.08308
N        108.26647       -1.59344       32.91377
C        108.55582       -0.36603       33.65578
C        107.94464       -0.37667       35.06649
O        108.17054        0.57708       35.79631
C        108.02773        0.88650       32.87389
C        106.47535        0.88547       32.72300
C        108.71914        0.99873       31.50379
C        105.90234        2.20761       32.20575
H        107.28189       -1.79443       32.71275
H        109.65477       -0.26025       33.78828
H        108.31042        1.78331       33.46890
H        106.00332        0.71765       33.71353
H        106.14970        0.07075       32.04628
H        108.43165        1.93476       30.98369
H        109.82113        1.02056       31.63310
H        108.45058        0.13827       30.85397
H        104.79386        2.13660       32.16510
H        106.17210        3.03569       32.89533
H        106.26097        2.44461       31.18497
N        107.11374       -1.37704       35.48939
C        106.37603       -1.35547       36.76000
C        106.58265       -2.60885       37.61684
O        106.03586       -2.65639       38.71104
C        104.87463       -1.11461       36.46629
C        104.22932       -2.13628       35.56090
O        104.92859       -3.19693       35.11254
O        103.07976       -1.96826       35.19090
H        106.93184       -2.14866       34.84486
H        106.71294       -0.49546       37.37891
H        104.79316       -0.12650       35.96088
H        104.30420       -1.05136       37.41834
N        107.37373       -3.64272       37.21497
C        107.68401       -4.80874       38.03472
C        106.54392       -5.77749       38.31489
O        106.81178       -6.76447       38.98636
H        107.85873       -3.56926       36.31581
H        108.11141       -4.46206       39.00015
H        108.47001       -5.39806       37.51673
N        105.26654       -5.59628       37.86901
C        104.18122       -6.52509       38.20589
C        104.28435       -7.90061       37.53445
O        103.42754       -8.73103       37.80761
C        102.79808       -5.87995       37.94043
C        102.50356       -5.49669       36.51784
O        103.32080       -5.66693       35.63141
O        101.31575       -4.93696       36.22463
H        105.04157       -4.74408       37.34010
H        104.20858       -6.69487       39.30548
H        102.71894       -4.95951       38.55723
H        102.00409       -6.58117       38.27832
N        105.28763       -8.23659       36.67022
C        105.39151       -9.55457       36.05280
C        104.33444       -9.83866       35.00019
O        104.36374      -10.92709       34.44446
H        106.03538       -7.56181       36.46692
H        105.36257      -10.33590       36.84284
H        106.37330       -9.63375       35.53732
N        103.40072       -8.91235       34.64064
C        102.41398       -9.11637       33.58587
C        102.67252       -8.11297       32.47461
O        103.51171       -7.24224       32.65256
C        100.99785       -8.98179       34.18729
C        100.77730      -10.04693       35.28249
C         99.44668       -9.95745       35.98512
N         99.16073      -10.83292       36.97762
O         98.63015       -9.10084       35.67903
H        103.39126       -8.00036       35.10497
H        102.52153      -10.12792       33.13867
H        100.22872       -9.10619       33.39429
H        100.88522       -7.96656       34.63151
H        101.55846       -9.93978       36.06421
H        100.86906      -11.05617       34.82622
H         99.84272      -11.55693       37.25038
H         98.26177      -10.78734       37.47949
N        102.02526       -8.19984       31.27578
C        102.30687       -7.28783       30.16593
C        101.08524       -6.45240       29.84960
O         99.96468       -6.90293       30.04107
C        102.90653       -8.03137       28.93499
C        101.94327       -9.05282       28.31515
C        103.38287       -7.04721       27.84938
H        101.32592       -8.94485       31.14389
H        103.09345       -6.56928       30.47792
H        103.80840       -8.58071       29.28713
H        101.65773       -9.82762       29.05418
H        101.02786       -8.55239       27.93532
H        102.43910       -9.57049       27.46543
H        102.53310       -6.47968       27.41725
H        104.11899       -6.32994       28.27029
H        103.88315       -7.59562       27.02282
N        101.25925       -5.17447       29.41866
C        100.18544       -4.22137       29.19860
C        100.13731       -3.83022       27.72886
O        100.98139       -4.24038       26.94642
C        100.44796       -3.03660       30.17254
C         99.47864       -1.87775       30.21240
N         98.75579       -1.61270       31.32558
O         99.39116       -1.12508       29.25945
H        102.21921       -4.84042       29.27424
H         99.20512       -4.68217       29.44859
H        101.45071       -2.60744       29.97053
H        100.46573       -3.48844       31.18088
H         98.82798       -2.20693       32.16347
H         98.12489       -0.79727       31.35211
N         99.10065       -3.07824       27.28773
C         98.91317       -2.58930       25.92378
C        100.05276       -1.66266       25.48481
O        100.62897       -1.92935       24.44052
C         97.47801       -2.00430       25.76864
C         97.05745       -1.01536       26.83667
C         97.40380        0.33577       26.74886
C         96.31236       -1.45838       27.94959
C         97.04623        1.22511       27.77097
C         95.96815       -0.57615       28.97337
C         96.33840        0.76710       28.89276
O         96.00991        1.60452       29.89665
H         98.37847       -2.88059       27.98480
H         98.92946       -3.45889       25.22692
H         96.80588       -2.88564       25.87293
H         97.28731       -1.60957       24.74793
H         97.95171        0.69198       25.88753
H         96.02603       -2.49938       28.04337
H         97.32623        2.26727       27.69596
H         95.42213       -0.94195       29.83436
H         96.25868        2.53933       29.88993
N        100.47114       -0.59156       26.22384
C        101.62397        0.24127       25.84626
C        102.96528       -0.50350       25.92106
O        103.96667        0.08623       25.53857
C        101.71853        1.50169       26.74159
C        100.52044        2.43961       26.54634
C        100.61065        3.65048       27.42715
O        101.54459        4.42819       27.31548
O         99.64583        3.89397       28.33519
H         99.96012       -0.36357       27.08215
H        101.48338        0.58301       24.79634
H        102.63217        2.07766       26.47287
H        101.80034        1.19458       27.80825
H         99.59348        1.90602       26.79748
H        100.46714        2.76591       25.48466
N        103.07270       -1.78118       26.38912
C        104.32899       -2.52639       26.46788
C        104.33446       -3.72133       25.51868
O        105.33547       -4.42458       25.47610
C        104.52185       -3.05559       27.90045
C        104.49017       -1.96022       28.96862
C        104.58242       -2.57374       30.33246
O        103.73161       -3.35508       30.72279
O        105.60505       -2.26216       31.13622
H        102.23186       -2.25825       26.71880
H        105.18980       -1.87757       26.19511
H        105.48587       -3.60802       27.97699
H        103.70209       -3.77017       28.10110
H        103.54075       -1.38703       28.91550
H        105.33994       -1.26195       28.80785
N        103.26249       -4.02919       24.73587
C        103.24170       -5.17679       23.85886
H        102.26552       -5.22401       23.32891
H        104.05267       -5.09535       23.10590
H        103.36577       -6.10710       24.45244
H        102.42013       -3.44954       24.75737
Ca       104.39797       -4.50047       33.35250
O        106.21341       -7.61625       33.53018
H        106.79272       -7.35401       34.28649
H        106.83456       -8.02280       32.87664
O        105.67632       -6.08588       31.09235
H        105.39940       -5.53545       30.31846
H        105.70997       -7.01075       30.74030
O        101.76624       -3.78397       33.20315
H        101.14003       -4.34969       33.71728
H        101.45856       -2.85623       33.35646

Ca 1.0



