%chk=holoCaM.loop3.water2.frame130.chk
%nprocshared=20
%mem=10GB
%nosave
#b3lyp/svp scf=(tight,noincore,xqc) Test 
#IOP(5/87=12) Density=Current Pop=(MK,readradii) iop(6/33=2) iop(6/42=6)

holoCaM.loop3.water2.frame130 

   0  1 
C         14.26407       94.15757        4.69198
C         14.24121       93.23527        5.87304
O         15.29924       92.78992        6.29248
H         14.87416       95.05267        4.93544
H         14.71169       93.63384        3.82218
H         13.24094       94.49178        4.41945
N         13.06445       92.91517        6.47881
C         12.99371       92.05250        7.64863
C         13.47640       90.64628        7.31170
O         12.99312       90.08136        6.34030
C         11.55715       92.04972        8.23008
C         11.57816       91.36347        9.55801
O         12.55083       91.72429       10.40241
O         10.85751       90.41549        9.80610
H         12.19253       93.33069        6.11545
H         13.65637       92.50076        8.42318
H         10.82095       91.58893        7.53589
H         11.25699       93.10409        8.41659
N         14.42532       90.02013        8.07687
C         15.01688       88.73122        7.71671
C         14.58256       87.57111        8.59821
O         14.99993       86.46621        8.27343
C         16.56281       88.81243        7.78180
C         17.22810       89.80956        6.82740
C         17.00000       89.44521        5.35500
C         17.84530       90.32899        4.43128
N         17.63118       89.96823        3.03055
H         14.75762       90.48273        8.93715
H         14.70138       88.44009        6.69223
H         16.99960       87.81302        7.55851
H         16.85717       89.07540        8.82241
H         18.32089       89.76566        7.03393
H         16.88162       90.84251        7.03573
H         15.92561       89.56333        5.10025
H         17.29630       88.38566        5.18977
H         18.92236       90.19390        4.68031
H         17.57977       91.39819        4.58417
H         18.23929       90.56597        2.42586
H         17.88240       88.96461        2.87410
H         16.63072       90.12570        2.76990
N         13.76742       87.69034        9.69106
C         13.38656       86.51441       10.48075
C         11.90356       86.18535       10.40089
O         11.54979       85.12195       10.89314
C         13.92285       86.58754       11.92262
C         13.44353       87.76501       12.70614
O         14.26025       88.51978       13.20762
O         12.12759       87.96997       12.90526
H         13.41244       88.61691        9.97002
H         13.86721       85.60555       10.05939
H         15.03522       86.61562       11.88346
H         13.63253       85.66454       12.46836
N         10.98771       86.97333        9.75751
C          9.63449       86.50362        9.47677
C          8.52515       87.21035       10.22170
O          7.39260       86.78127       10.05097
H         11.26472       87.88884        9.37813
H          9.53320       85.42987        9.74158
H          9.45589       86.57502        8.38228
N          8.73655       88.25779       11.07059
C          7.66306       88.83958       11.88008
C          7.27045       90.25316       11.46088
O          6.42915       90.83363       12.13369
C          8.01503       88.74411       13.38492
C          9.19426       89.56320       13.85719
N          9.51475       89.56792       15.17098
O          9.85616       90.22835       13.07669
H          9.68826       88.63217       11.17464
H          6.73033       88.24429       11.76662
H          8.20483       87.67803       13.63900
H          7.12713       89.07327       13.96786
H          8.96853       89.01490       15.84768
H         10.30225       90.13448       15.51610
N          7.75261       90.84925       10.33002
C          7.29267       92.16129        9.88699
C          7.74668       93.31855       10.76629
O          7.28361       94.42676       10.54190
H          8.39280       90.33159        9.71402
H          6.18108       92.14023        9.84245
H          7.66268       92.35904        8.85797
N          8.66986       93.15046       11.75384
C          9.14778       94.20516       12.64367
C         10.63303       94.42675       12.44721
O         11.40108       93.47755       12.49646
C          8.90402       93.79156       14.10775
C          7.50165       94.09199       14.56272
C          6.54873       93.07820       14.73032
C          7.15771       95.42047       14.87181
C          5.26584       93.39208       15.19604
C          5.88556       95.72867       15.35501
C          4.93323       94.71423       15.51889
O          3.70286       94.99707       15.99235
H          9.08404       92.22036       11.88359
H          8.63481       95.17484       12.45882
H          9.56730       94.36562       14.79329
H          9.17409       92.72161       14.24335
H          6.79666       92.05103       14.49834
H          7.88713       96.21506       14.76397
H          4.53258       92.60555       15.31755
H          5.64574       96.75421       15.60860
H          3.44513       95.89470       16.24831
N         11.10335       95.69910       12.30007
C         12.51336       96.05063       12.20347
C         12.89955       96.85113       13.44206
O         12.25156       97.83840       13.75829
C         12.78602       96.82675       10.88387
C         12.47599       95.89839        9.67699
C         14.24719       97.32349       10.83880
C         12.67440       96.55348        8.31009
H         10.42820       96.47926       12.30177
H         13.14651       95.14022       12.17124
H         12.12240       97.71942       10.84556
H         11.41544       95.57168        9.73308
H         13.11795       94.99056        9.72608
H         14.46506       97.99207       11.69725
H         14.95240       96.46790       10.86203
H         14.44038       97.92914        9.93202
H         12.38953       95.83192        7.51541
H         12.03795       97.45823        8.21970
H         13.73610       96.82461        8.14107
N         13.99739       96.48079       14.15992
C         14.49638       97.16002       15.34968
C         15.81964       97.83285       15.02412
O         16.22523       97.80960       13.87660
C         14.66870       96.12050       16.47677
O         15.64447       95.16564       16.14030
H         14.55791       95.69337       13.81441
H         13.78546       97.94137       15.69456
H         13.69206       95.63134       16.70046
H         14.98388       96.61162       17.42012
H         15.17031       94.36608       15.79368
N         16.55733       98.45518       15.98423
C         17.87153       99.03460       15.71208
C         18.85374       97.96875       15.24787
O         19.50811       98.16785       14.23308
C         18.42201       99.71954       16.96480
H         16.18371       98.49952       16.94368
H         17.77822       99.82298       14.93084
H         19.40721      100.18212       16.73768
H         17.72774      100.52463       17.28670
H         18.54610       98.99401       17.79580
N         18.99169       96.79938       15.94160
C         19.94576       95.74204       15.59287
C         19.74259       95.12051       14.21109
O         20.55271       94.28400       13.83566
C         19.87219       94.62145       16.64084
H         18.40397       96.67126       16.78051
H         20.96629       96.18238       15.62179
H         18.86259       94.15375       16.63126
H         20.62979       93.83534       16.43470
H         20.06619       95.03103       17.65433
N         18.70562       95.46734       13.40052
C         18.47291       94.89832       12.08144
C         18.65745       95.99390       11.04376
O         19.49308       95.84173       10.16343
C         17.06478       94.27336       12.04728
C         16.90980       93.18597       13.13507
C         15.52157       92.62459       13.15018
O         15.30869       91.30852       13.01477
O         14.56205       93.36363       13.26728
H         18.02206       96.15523       13.72552
H         19.20369       94.09026       11.85329
H         16.87042       93.83740       11.04220
H         16.31384       95.07063       12.23145
H         17.10212       93.62497       14.13506
H         17.64140       92.36740       12.95801
N         17.95513       97.15735       11.12142
C         18.17327       98.27035       10.22464
H         19.23197       98.60366       10.28728
H         17.92946       97.97920        9.18320
H         17.52580       99.12416       10.52265
H         17.26362       97.27939       11.86495
Ca        13.24182       90.83794       12.29862
O         12.04713       92.81860       15.28081
H         12.52647       93.62634       14.96846
H         11.48359       93.14176       16.02736
O         12.89560       89.82910       15.42045
H         13.43993       89.93725       16.23945
H         12.53673       88.90808       15.48126

Ca 1.0



