%chk=holoCaM.loop3.water2.frame289.chk
%nprocshared=20
%mem=10GB
%nosave
#b3lyp/svp scf=(tight,noincore,xqc) Test 
#IOP(5/87=12) Density=Current Pop=(MK,readradii) iop(6/33=2) iop(6/42=6)

holoCaM.loop3.water2.frame289 

   0  1 
C         23.76541       69.75021       92.01207
C         24.55870       70.92289       91.51787
O         25.24399       71.56261       92.30253
H         22.68835       69.90712       91.78855
H         24.11117       68.82995       91.49575
H         23.88788       69.61759       93.10749
N         24.48389       71.27086       90.20519
C         25.19966       72.38646       89.60514
C         24.16528       73.43291       89.24020
O         23.71637       73.48153       88.10375
C         25.99923       71.85077       88.38996
C         26.79776       72.83341       87.56148
O         27.14310       72.48118       86.44782
O         27.21550       74.03442       88.01327
H         23.85655       70.72471       89.59349
H         25.89058       72.82592       90.33750
H         25.25782       71.39216       87.70197
H         26.68760       71.04127       88.70224
N         23.65849       74.23898       90.21819
C         22.56276       75.18062       89.98930
C         22.99147       76.40432       89.18911
O         22.12137       77.17924       88.81488
C         21.95323       75.65674       91.32290
C         21.46849       74.48753       92.19583
C         20.87567       75.00308       93.51073
C         20.55118       73.87222       94.50014
N         19.54411       72.94347       93.98635
H         24.03887       74.13092       91.16974
H         21.76322       74.64124       89.43216
H         21.08587       76.32125       91.10761
H         22.71529       76.24224       91.88303
H         22.31926       73.82245       92.44590
H         20.71173       73.89866       91.63476
H         19.96519       75.60560       93.30080
H         21.62405       75.66172       94.00393
H         20.17354       74.33499       95.43810
H         21.48200       73.31319       94.74622
H         18.67441       73.46169       93.72553
H         19.91218       72.41847       93.16139
H         19.31521       72.24982       94.73433
N         24.30064       76.64728       88.88816
C         24.74270       77.76064       88.05504
C         25.23599       77.25562       86.70642
O         25.55135       78.07783       85.85729
C         25.77978       78.64929       88.78329
C         27.01835       77.93033       89.24640
O         28.10975       78.23300       88.79266
O         26.94231       77.00933       90.22424
H         25.01701       75.98582       89.21166
H         23.88295       78.42331       87.81314
H         25.30759       79.11619       89.67430
H         26.07290       79.47261       88.09454
N         25.25222       75.92300       86.40364
C         25.51955       75.40649       85.07811
C         26.91847       75.64121       84.57128
O         27.14587       75.31610       83.41394
H         24.97803       75.23047       87.10365
H         24.79534       75.87370       84.37738
H         25.33732       74.30855       85.06805
N         27.91576       76.18245       85.33598
C         29.23741       76.45130       84.77329
C         29.96076       75.18215       84.31259
O         30.98161       75.30129       83.65088
C         30.09810       77.30405       85.73221
C         30.62418       76.56379       86.93984
N         31.95635       76.52555       87.18343
O         29.85227       76.01589       87.71204
H         27.72298       76.45138       86.31102
H         29.05940       77.08841       83.87804
H         29.49276       78.17321       86.07191
H         30.95799       77.71104       85.15823
H         32.62366       76.99966       86.55690
H         32.32765       76.03620       88.00939
N         29.47740       73.93963       84.61429
C         30.03386       72.69021       84.12544
C         30.56110       71.80680       85.23576
O         30.97666       70.69816       84.92680
H         28.65152       73.85438       85.21233
H         30.86657       72.86675       83.41025
H         29.23026       72.14987       83.58090
N         30.67448       72.24991       86.52407
C         31.42337       71.52186       87.54678
C         30.71207       71.53048       88.88937
O         29.99790       72.47861       89.18655
C         32.79517       72.21612       87.66792
C         33.52469       72.10830       86.34632
C         33.59525       73.20814       85.47304
C         34.08932       70.88336       85.95277
C         34.20892       73.07760       84.22267
C         34.71708       70.76034       84.71001
C         34.77293       71.85639       83.83730
O         35.35877       71.74612       82.62769
H         30.39012       73.21498       86.74853
H         31.59507       70.46318       87.24911
H         33.42267       71.78115       88.47547
H         32.61224       73.28454       87.92174
H         33.14679       74.15573       85.74399
H         34.04133       70.02360       86.60946
H         34.23773       73.92424       83.54817
H         35.15023       69.81034       84.42286
H         35.75584       70.91799       82.32151
N         30.92900       70.51899       89.78311
C         30.36387       70.48312       91.13104
C         31.51401       70.48974       92.12763
O         32.26624       69.52440       92.17006
C         29.48053       69.20757       91.32117
C         28.31031       69.19080       90.30817
C         28.94585       69.11310       92.76634
C         27.51880       67.87881       90.30602
H         31.54840       69.74188       89.50362
H         29.72878       71.38021       91.30813
H         30.12191       68.31830       91.12747
H         28.71136       69.31596       89.28003
H         27.62301       70.03525       90.52610
H         28.38266       68.17445       92.93339
H         29.77890       69.09413       93.49498
H         28.28473       69.97499       92.99538
H         26.72959       67.92528       89.52666
H         28.19293       67.02621       90.07426
H         27.01545       67.69472       91.27565
N         31.72230       71.55468       92.95444
C         32.79395       71.57381       93.95120
C         32.40720       70.75120       95.17215
O         31.28043       70.28927       95.24195
C         33.10897       73.02113       94.36513
O         31.99426       73.61587       94.97654
H         31.11954       72.38471       92.84799
H         33.71956       71.16224       93.49122
H         33.41792       73.58541       93.45274
H         33.96325       73.05017       95.07376
H         31.82308       74.47654       94.51365
N         33.28798       70.53530       96.19175
C         32.90254       69.82418       97.41082
C         31.87579       70.61244       98.20869
O         31.06882       70.00476       98.89843
C         34.11750       69.53861       98.29430
H         34.25346       70.88574       96.09703
H         32.47104       68.83788       97.12615
H         34.85212       68.92435       97.73157
H         34.60323       70.48398       98.61576
H         33.80633       68.96657       99.19579
N         31.85165       71.97559       98.16130
C         30.85351       72.78619       98.84899
C         29.47007       72.44372       98.34032
O         28.57881       72.15906       99.12729
C         31.12265       74.27986       98.59006
H         32.56020       72.46101       97.58991
H         30.91334       72.61897       99.94695
H         30.36683       74.90609       99.11102
H         32.12899       74.55910       98.96679
H         31.08181       74.51664       97.50432
N         29.23793       72.47379       97.00361
C         27.93796       72.26522       96.38500
C         27.41469       70.86470       96.65068
O         26.34832       70.73694       97.23644
C         28.04245       72.55311       94.87379
C         28.42429       74.02889       94.62351
C         28.55223       74.29501       93.16425
O         29.61713       74.64950       92.68462
O         27.48688       74.11871       92.37298
H         30.04254       72.68462       96.39756
H         27.21391       72.99754       96.80806
H         27.06350       72.34573       94.38916
H         28.80851       71.88664       94.41671
H         29.38686       74.28486       95.10781
H         27.64371       74.69744       95.04280
N         28.10838       69.76469       96.25356
C         27.63430       68.41934       96.49572
H         26.66002       68.26216       95.98630
H         28.36538       67.68275       96.09847
H         27.51638       68.24785       97.58694
H         29.00262       69.88095       95.76680
Ca        27.72733       74.27182       90.16820
O         31.65928       74.91807       90.38345
H         32.42398       74.28917       90.38953
H         32.07025       75.81046       90.50791
O         29.70165       77.52854       91.62422
H         28.92663       78.03793       91.97095
H         30.24465       77.32822       92.42749

Ca 1.0



