%chk=holoCaM-CaMKII.loop2.water2.frame321.chk
%nprocshared=20
%mem=10GB
%nosave
#b3lyp/svp scf=(tight,noincore,xqc) Test 
#IOP(5/87=12) Density=Current Pop=(MK,readradii) iop(6/33=2) iop(6/42=6)

holoCaM-CaMKII.loop2.water2.frame321 

   -2  1 
C         37.10122       29.75495       55.76068
C         35.89454       28.96855       55.32844
O         35.80263       27.79725       55.65154
H         38.02415       29.30056       55.34818
H         37.04177       30.81092       55.41881
H         37.15840       29.76071       56.87053
N         34.90956       29.56956       54.61231
C         33.64215       28.93755       54.25916
C         33.78502       27.72451       53.34381
O         34.40199       27.83330       52.29388
C         32.74104       29.98763       53.58881
C         31.39509       29.42076       53.29336
O         30.67501       28.88290       54.29216
O         30.96311       29.41935       52.15217
H         35.04254       30.56214       54.36222
H         33.13802       28.62725       55.20057
H         33.21220       30.36187       52.65359
H         32.60463       30.84380       54.28377
N         33.14849       26.55495       53.66365
C         33.14120       25.35875       52.82746
C         31.73368       24.92307       52.39075
O         31.66304       24.03878       51.54799
C         33.80636       24.20915       53.59591
H         32.62993       26.51845       54.54338
H         33.72872       25.54859       51.90389
H         34.84050       24.48987       53.88753
H         33.23154       23.97799       54.52050
H         33.85504       23.29052       52.97272
N         30.58041       25.42274       52.94083
C         29.24445       24.91663       52.59168
C         28.17470       26.01010       52.42165
O         27.04207       25.66306       52.11558
C         28.82240       23.83811       53.61280
C         28.91223       24.28856       55.03996
O         28.25406       25.23154       55.43158
O         29.72681       23.64551       55.89807
H         30.64874       26.07782       53.73017
H         29.27845       24.39281       51.61064
H         29.50258       22.96685       53.49511
H         27.79126       23.48587       53.39019
N         28.45449       27.33852       52.54451
C         27.49818       28.40919       52.27371
C         26.35216       28.56022       53.26394
O         25.51198       29.41625       53.02379
H         29.41474       27.61434       52.74243
H         27.08434       28.26144       51.25318
H         28.04188       29.37975       52.27562
N         26.23625       27.79856       54.38876
C         25.11555       27.90674       55.32964
C         25.12462       29.17184       56.20823
O         24.30116       29.25219       57.10970
C         24.99327       26.60695       56.16427
C         26.11343       26.28003       57.11434
N         26.06113       25.11891       57.80742
O         27.06590       27.03080       57.25501
H         26.93450       27.06558       54.54910
H         24.16936       27.91495       54.74410
H         24.90828       25.75922       55.44844
H         24.05246       26.64143       56.75462
H         25.27044       24.47002       57.68575
H         26.80851       24.85130       58.45689
N         25.96793       30.22271       55.97879
C         25.96073       31.46195       56.74754
C         26.63028       31.37433       58.10920
O         26.68650       32.39726       58.77682
H         26.58847       30.20260       55.16578
H         24.91728       31.83706       56.84388
H         26.53277       32.22591       56.17805
N         27.15222       30.21243       58.59688
C         27.76991       30.08624       59.91455
C         29.11417       29.37687       59.84040
O         29.18961       28.31063       59.25011
C         26.84288       29.26920       60.84563
C         25.54465       30.01897       61.14479
O         26.52703       28.02147       60.27897
H         27.05921       29.35581       58.04127
H         27.91016       31.07727       60.40169
H         27.35098       29.13162       61.83133
H         27.20922       27.37328       60.59334
H         24.96324       30.19406       60.21572
H         24.92414       29.42311       61.84667
H         25.77011       30.99717       61.62221
N         30.18681       29.84437       60.54434
C         31.40100       29.05056       60.75800
C         31.03065       27.72541       61.41476
O         30.40175       27.72744       62.46334
C         32.44858       29.84726       61.61873
C         33.16166       30.87677       60.69865
C         33.48763       28.92288       62.29954
C         34.17123       31.78482       61.40593
H         30.09463       30.74691       61.03547
H         31.88136       28.81662       59.78867
H         31.91638       30.36634       62.44739
H         32.40224       31.52710       60.21576
H         33.70502       30.32772       59.89599
H         32.98890       28.21589       62.99576
H         34.06811       28.34644       61.55148
H         34.18108       29.49972       62.94296
H         34.61996       32.47707       60.66215
H         33.66949       32.38111       62.19511
H         35.00803       31.20743       61.84888
N         31.47972       26.55554       60.86864
C         31.31923       25.25074       61.49805
C         32.65285       24.80756       62.08841
O         33.63805       25.51730       61.96142
C         30.74640       24.21750       60.50009
C         29.28867       24.48146       60.21402
O         28.89154       25.47943       59.40357
O         28.44217       23.75188       60.70417
H         32.05949       26.59520       60.01967
H         30.63216       25.31589       62.36926
H         30.79529       23.21859       60.97990
H         31.34719       24.15324       59.56464
N         32.72330       23.66342       62.83348
C         33.92114       23.26735       63.56890
C         35.12146       23.05194       62.65945
O         36.17136       23.58776       62.99418
C         33.65897       22.03218       64.46053
C         34.79678       21.80444       65.42912
C         35.06196       22.74989       66.43783
C         35.59625       20.65272       65.34335
C         36.10734       22.54654       67.34137
C         36.64599       20.45615       66.24745
C         36.90019       21.40120       67.24574
H         31.87400       23.09289       62.94406
H         34.15505       24.10406       64.26345
H         33.49299       21.13440       63.83940
H         32.73672       22.18697       65.06117
H         34.45469       23.64178       66.53113
H         35.41355       19.91246       64.57474
H         36.30086       23.27735       68.11630
H         37.26299       19.57032       66.17501
H         37.71034       21.24631       67.94633
N         35.08815       22.31933       61.50152
C         36.21305       22.20935       60.58173
C         36.78945       23.56521       60.20100
O         37.99479       23.75121       60.25175
C         35.59894       21.55289       59.33162
C         34.52439       20.68411       59.93247
C         33.92653       21.61776       60.97977
H         36.98909       21.54942       61.03130
H         35.05709       22.30815       58.71668
H         36.32930       21.03758       58.67235
H         33.78796       20.26827       59.21181
H         35.03115       19.84170       60.45662
H         33.23417       22.35926       60.52642
H         33.39719       20.99190       61.71781
N         35.94641       24.55403       59.79102
C         36.38925       25.85280       59.28633
C         37.05083       26.70866       60.35641
O         37.70599       27.67866       60.00000
C         35.18676       26.63955       58.73609
C         34.41951       25.88786       57.62804
C         33.12428       26.56295       57.31764
O         32.16926       25.85464       56.70675
O         32.83814       27.64255       57.80771
H         34.94081       24.34239       59.81486
H         37.10891       25.67032       58.45831
H         35.51027       27.63037       58.34823
H         34.49373       26.81346       59.59071
H         34.12293       24.88363       57.98076
H         35.02692       25.73030       56.71564
N         36.86431       26.45931       61.68242
C         37.43882       27.25335       62.74742
H         38.07633       28.07726       62.36618
H         36.62116       27.69104       63.35873
H         38.05696       26.59811       63.39633
H         36.25647       25.68724       61.96639
Ca        30.22691       26.11321       57.73610
O         28.87243       29.73074       56.04626
H         28.84806       30.32351       55.25275
H         29.32278       30.27346       56.73752
O         32.01602       30.29346       56.97534
H         31.47915       30.04043       57.76670
H         32.22032       31.25186       57.10969

Ca 1.0



