%chk=holoCaM.loop1.water2.frame90.chk
%nprocshared=20
%mem=10GB
%nosave
#b3lyp/svp scf=(tight,noincore,xqc) Test 
#IOP(5/87=12) Density=Current Pop=(MK,readradii) iop(6/33=2) iop(6/42=6)

holoCaM.loop1.water2.frame90 

   0  1 
C         78.62364       20.34702        7.10862
C         77.84904       21.18506        6.14855
O         76.66737       21.42260        6.36087
H         79.49124       20.92872        7.48666
H         77.98910       20.03617        7.96343
H         78.99054       19.44767        6.57250
N         78.47897       21.69147        5.05856
C         77.80154       22.53131        4.09593
C         76.76789       21.71554        3.30256
O         77.15403       20.80186        2.58664
C         78.84597       23.16557        3.15507
C         78.23128       24.23800        2.33785
O         78.85941       24.76488        1.44629
O         77.00510       24.66100        2.66775
H         79.48959       21.51373        4.94850
H         77.31347       23.35398        4.67114
H         79.29748       22.37643        2.51562
H         79.65428       23.65633        3.73971
N         75.43188       21.96536        3.43400
C         74.37873       21.13540        2.84391
C         74.06346       21.43541        1.37836
O         73.33486       20.64926        0.78801
C         73.08259       21.22837        3.69561
C         72.36428       22.59118        3.59824
C         71.15409       22.67367        4.53417
C         70.58595       24.10188        4.66608
N         70.22582       24.69889        3.37937
H         75.16996       22.64930        4.14322
H         74.72467       20.08070        2.91901
H         73.36527       21.03931        4.75637
H         72.37239       20.43346        3.38608
H         72.03672       22.78268        2.55336
H         73.05403       23.38066        3.88844
H         71.45697       22.36010        5.55739
H         70.37025       21.97541        4.17076
H         71.32902       24.75924        5.17046
H         69.68620       24.05142        5.31816
H         69.63198       24.04560        2.82084
H         69.69351       25.58221        3.55447
H         71.09067       24.94468        2.84537
N         74.48430       22.57360        0.74842
C         74.11839       22.89807       -0.63618
C         75.31254       23.33842       -1.49817
O         75.10436       23.66429       -2.65833
C         72.83691       23.77793       -0.69641
C         72.84384       25.07945        0.03785
O         73.91253       25.47039        0.72473
O         71.83949       25.77116        0.05673
H         75.01323       23.27017        1.29136
H         73.77635       21.97546       -1.15456
H         72.00844       23.18267       -0.25060
H         72.57612       23.97823       -1.75721
N         76.59896       23.20066       -1.05672
C         77.77335       23.25883       -1.92465
C         78.13414       24.62532       -2.45927
O         78.29722       24.78414       -3.66003
H         76.77106       22.88572       -0.09181
H         77.64918       22.53543       -2.75912
H         78.64918       22.92402       -1.32705
N         78.32723       25.64749       -1.59393
C         78.78281       26.98883       -1.94468
C         79.96023       27.44598       -1.05382
O         80.34368       28.60419       -1.14329
C         77.57833       27.95171       -1.86555
C         76.75412       27.75646       -0.63131
O         75.54593       27.60105       -0.71679
O         77.35922       27.62065        0.55621
H         78.09048       25.47002       -0.61362
H         79.14597       27.04443       -2.99381
H         76.91203       27.76295       -2.73644
H         77.92751       29.00258       -1.93951
N         80.60749       26.59178       -0.20536
C         81.72442       26.96258        0.65718
C         81.36217       27.98167        1.71663
O         82.20440       28.80555        2.04368
H         80.33751       25.60255       -0.18661
H         82.58219       27.33034        0.05246
H         82.07367       26.05053        1.19015
N         80.14895       27.95486        2.33569
C         79.75142       28.89921        3.37926
C         78.74826       28.26249        4.32400
O         77.78798       27.64347        3.88699
C         79.19798       30.24218        2.83142
C         80.25356       31.12082        2.15842
O         78.11659       30.05177        1.97035
H         79.47478       27.23162        2.04804
H         80.63838       29.16187        3.99594
H         78.83341       30.82428        3.70648
H         78.45447       29.50705        1.21861
H         81.10592       31.28065        2.85209
H         80.61725       30.66401        1.21597
H         79.80974       32.11080        1.92005
N         78.90243       28.45391        5.66155
C         78.04038       27.90411        6.69262
C         77.13808       29.01425        7.22240
O         77.61705       30.04987        7.66038
C         78.94038       27.19122        7.75238
C         79.42027       25.84010        7.14619
C         78.24230       27.00523        9.10546
C         80.32332       25.01267        8.05883
H         79.66886       29.06667        5.98069
H         77.35964       27.13398        6.27329
H         79.82390       27.83155        7.97247
H         79.98609       26.05911        6.21564
H         78.54666       25.20386        6.87310
H         78.93129       26.53521        9.83761
H         77.97755       27.99533        9.53519
H         77.33533       26.39071        9.00602
H         79.74909       24.60790        8.91896
H         80.72355       24.14713        7.48813
H         81.17152       25.62538        8.42607
N         75.78699       28.81235        7.22087
C         74.77156       29.72693        7.71194
C         74.38816       29.29066        9.10422
O         74.96342       28.34877        9.60868
C         73.52574       29.72271        6.77190
C         73.86597       30.19953        5.35251
O         72.90758       28.45405        6.76855
H         75.44494       27.88930        6.97078
H         75.18139       30.75567        7.79089
H         72.76431       30.43749        7.14607
H         73.20342       27.94378        5.97416
H         72.96693       30.12799        4.70116
H         74.20506       31.25586        5.37200
H         74.66816       29.56993        4.92276
N         73.44664       29.95922        9.80659
C         73.12898       29.67147       11.20452
C         72.69209       28.20726       11.39788
O         73.14918       27.56633       12.33385
C         72.07121       30.69667       11.73612
C         72.20785       30.93988       13.24283
O         72.25219       31.95195       11.12687
H         72.98914       30.74554        9.33017
H         74.06677       29.83620       11.78264
H         71.05594       30.31220       11.47681
H         71.37328       32.41551       11.15130
H         71.46787       31.70942       13.55651
H         72.05917       30.02176       13.84002
H         73.21867       31.36103       13.45330
N         71.81329       27.61947       10.53238
C         71.30502       26.24776       10.66946
C         72.33535       25.18419       10.28197
O         72.35006       24.12919       10.90185
C         69.95765       26.10013        9.91109
C         68.92294       27.05869       10.54880
C         67.51947       27.03444        9.92826
C         66.61876       28.01724       10.70838
N         65.26823       28.10222       10.15413
H         71.45488       28.19368        9.75429
H         71.04901       26.06550       11.73752
H         69.58003       25.05812       10.00874
H         70.09436       26.32409        8.82969
H         69.29705       28.10234       10.47955
H         68.82742       26.79361       11.62446
H         67.09156       26.01000        9.97675
H         67.58290       27.34984        8.86359
H         67.08090       29.02882       10.67742
H         66.55307       27.70216       11.77523
H         64.76549       28.89279       10.62136
H         65.30462       28.29316        9.12716
H         64.74354       27.21713       10.33869
N         73.24004       25.39644        9.28523
C         74.32026       24.46003        8.94702
C         75.28526       24.35034       10.13543
O         75.66235       23.25110       10.51527
C         75.04911       24.92791        7.65255
C         74.08592       24.98003        6.43831
C         74.70827       25.52573        5.16856
O         75.15070       26.78292        5.07354
O         74.74427       24.85227        4.16623
H         73.18511       26.28868        8.77450
H         73.90766       23.45143        8.71763
H         75.87881       24.22507        7.41128
H         75.48341       25.92229        7.83138
H         73.20973       25.61748        6.66385
H         73.70790       23.94987        6.25400
N         75.65814       25.47614       10.80581
C         76.49831       25.54226       11.98276
H         77.36951       26.20017       11.77655
H         75.91865       26.01167       12.80848
H         76.85768       24.54838       12.31147
H         75.28342       26.36113       10.48674
Ca        75.63299       26.17030        1.87260
O         72.75677       27.24677        2.97927
H         71.88216       27.60628        3.26847
H         72.69340       27.23479        1.99353
O         75.24400       29.23467        2.53589
H         75.86894       29.33438        1.78090
H         74.57851       29.95040        2.38527

Ca 1.0



