%chk=holoCaM-CaMKII.loop3.water2.frame177.chk
%nprocshared=20
%mem=10GB
%nosave
#b3lyp/svp scf=(tight,noincore,xqc) Test 
#IOP(5/87=12) Density=Current Pop=(MK,readradii) iop(6/33=2) iop(6/42=6)

holoCaM-CaMKII.loop3.water2.frame177 

   0  1 
C         87.30473       55.83339       23.27544
C         86.06344       55.34489       23.94731
O         85.21044       56.15735       24.27829
H         88.19250       55.53371       23.86953
H         87.36679       55.38974       22.26034
H         87.28621       56.94062       23.18480
N         85.90129       54.01468       24.19635
C         84.70919       53.47633       24.82574
C         85.07396       52.97443       26.21118
O         85.95471       52.13227       26.32333
C         84.10095       52.36095       23.94571
C         82.68220       52.16211       24.35752
O         82.33800       51.16236       24.96125
O         81.81993       53.17661       24.15835
H         86.65958       53.36185       23.94339
H         83.95456       54.28628       24.92822
H         84.70341       51.42994       24.03701
H         84.07786       52.65675       22.87600
N         84.45406       53.47822       27.31729
C         84.84414       53.14234       28.68279
C         83.75609       52.32004       29.34863
O         84.06188       51.22029       29.79182
C         85.21380       54.42255       29.45948
C         86.41865       55.13351       28.80266
C         86.93197       56.30646       29.65371
C         88.20952       56.95312       29.08005
N         87.96538       57.69068       27.83888
H         83.68477       54.15358       27.19078
H         85.75832       52.50516       28.68595
H         85.49634       54.12615       30.49361
H         84.34691       55.11673       29.51601
H         86.13219       55.48480       27.78902
H         87.24971       54.40077       28.70158
H         87.19372       55.90278       30.65597
H         86.14190       57.07716       29.78409
H         88.98521       56.17230       28.91280
H         88.60952       57.66588       29.83495
H         88.86843       58.10421       27.51014
H         87.59968       57.06331       27.08908
H         87.29014       58.46952       28.01633
N         82.45160       52.72957       29.38865
C         81.37992       51.85776       29.89182
C         81.24474       50.54925       29.08237
O         80.48831       49.68707       29.50793
C         80.00684       52.57923       29.96782
C         79.48443       52.93160       28.60921
O         80.15909       53.81141       27.86000
O         78.49654       52.37548       28.15778
H         82.22799       53.67088       29.03956
H         81.64956       51.58478       30.93638
H         80.07969       53.49874       30.58676
H         79.28265       51.89458       30.46222
N         81.97170       50.30760       27.94651
C         82.02124       49.01626       27.27934
C         80.81392       48.64119       26.44661
O         80.84612       47.54224       25.90867
H         82.61762       51.01808       27.58491
H         82.21430       48.22817       28.04154
H         82.88938       49.00997       26.58520
N         79.71850       49.44305       26.27791
C         78.54980       48.95669       25.53873
C         78.80508       48.77486       24.03869
O         78.02736       48.07977       23.40142
C         77.28187       49.78576       25.84213
C         77.20606       51.12459       25.15428
N         76.11040       51.46260       24.43456
O         78.11848       51.92208       25.26772
H         79.68094       50.35564       26.75307
H         78.33323       47.95287       25.96959
H         77.22959       49.94051       26.94175
H         76.38923       49.19162       25.55188
H         75.31084       50.81813       24.35019
H         76.04471       52.38363       23.97906
N         79.85838       49.37736       23.40771
C         80.20380       49.16689       22.00495
C         79.99178       50.39371       21.13648
O         80.34205       50.33624       19.96541
H         80.45662       50.02005       23.93895
H         79.60646       48.34457       21.55766
H         81.27272       48.86406       21.96118
N         79.37228       51.50972       21.61034
C         79.04049       52.67632       20.79826
C         79.59124       53.92090       21.44922
O         79.34263       54.10969       22.63404
C         77.50823       52.82139       20.73974
C         76.83516       51.66611       20.04383
C         76.01158       50.79194       20.76949
C         77.00103       51.46502       18.66285
C         75.36386       49.73397       20.12985
C         76.34229       50.41069       18.02068
C         75.52032       49.54165       18.75429
O         74.87341       48.52470       18.15045
H         79.05222       51.52334       22.58985
H         79.42374       52.59223       19.75648
H         77.22615       53.75691       20.20706
H         77.12966       52.90884       21.78155
H         75.87125       50.92620       21.83162
H         77.62407       52.13320       18.08102
H         74.73382       49.06779       20.70530
H         76.46644       50.27339       16.95383
H         74.94100       48.36385       17.19875
N         80.26511       54.86352       20.72780
C         80.67680       56.13272       21.32033
C         79.82819       57.26636       20.77923
O         79.24636       57.14031       19.70818
C         82.20161       56.40842       21.15820
C         82.60665       56.65407       19.68062
C         83.00714       55.26483       21.79368
C         84.07568       57.05285       19.51136
H         80.41423       54.71179       19.71812
H         80.47401       56.10743       22.41074
H         82.43448       57.33744       21.72135
H         82.00387       57.49775       19.28133
H         82.40395       55.75594       19.06078
H         82.82841       54.30820       21.25792
H         84.09313       55.47859       21.78569
H         82.71244       55.14889       22.85434
H         84.75657       56.22774       19.80178
H         84.27356       57.28790       18.44446
H         84.30537       57.95380       20.12007
N         79.70366       58.41004       21.50167
C         78.96594       59.58596       21.06345
C         79.92052       60.76015       20.96937
O         81.10051       60.58523       21.23300
C         77.81644       59.86820       22.04995
O         78.31838       60.12667       23.33349
H         80.16881       58.45750       22.42031
H         78.51899       59.42566       20.05801
H         77.14446       58.98199       22.08543
H         77.22663       60.74194       21.69362
H         77.54754       60.44151       23.87435
N         79.48816       61.99560       20.60571
C         80.36168       63.16573       20.57714
C         80.95247       63.43389       21.95199
O         82.14992       63.65791       22.04980
C         79.58607       64.39385       20.09915
H         78.49219       62.11391       20.36144
H         81.18783       63.00123       19.84825
H         79.18957       64.20834       19.07770
H         78.73926       64.61949       20.78094
H         80.26226       65.27459       20.05371
N         80.16635       63.37066       23.06505
C         80.66212       63.57453       24.42469
C         81.84162       62.66745       24.73313
O         82.88268       63.16332       25.14123
C         79.53436       63.31085       25.43425
H         79.17041       63.13200       22.93790
H         80.98370       64.63296       24.54188
H         79.89423       63.48439       26.47079
H         78.67995       63.99374       25.24102
H         79.16935       62.26332       25.35660
N         81.74876       61.32470       24.54089
C         82.83318       60.38548       24.82391
C         84.08773       60.70820       24.02496
O         85.16942       60.66875       24.59396
C         82.39352       58.93793       24.52850
C         81.23909       58.48691       25.44266
C         80.85358       57.06617       25.16295
O         79.71500       56.79515       24.81723
O         81.75851       56.08090       25.31062
H         80.86217       60.96185       24.16039
H         83.09167       60.42678       25.90585
H         83.25751       58.25950       24.70573
H         82.10378       58.85429       23.46324
H         80.34867       59.13491       25.30258
H         81.55704       58.56042       26.50469
N         84.01646       61.04908       22.70883
C         85.16953       61.34595       21.88370
H         86.12735       61.19301       22.42254
H         85.15890       60.68282       20.99304
H         85.11817       62.40139       21.54160
H         83.09794       61.13146       22.26713
Ca        80.24265       53.53755       25.66516
O         77.95341       55.78746       27.25521
H         78.44227       55.89883       28.10870
H         77.79399       56.71214       26.93983
O         77.14858       54.99852       24.39493
H         76.62956       54.70469       23.60526
H         77.00850       55.97774       24.42949

Ca 1.0



