%chk=holoCaM-CaMKII.loop3.water2.frame395.chk
%nprocshared=20
%mem=10GB
%nosave
#b3lyp/svp scf=(tight,noincore,xqc) Test 
#IOP(5/87=12) Density=Current Pop=(MK,readradii) iop(6/33=2) iop(6/42=6)

holoCaM-CaMKII.loop3.water2.frame395 

   0  1 
C         56.60523       91.64644       86.12249
C         57.05609       91.90102       87.52682
O         56.44052       91.37061       88.44077
H         55.55944       92.00042       86.00415
H         57.24648       92.17805       85.38937
H         56.64850       90.55729       85.91460
N         58.11267       92.72596       87.77880
C         58.57454       93.02794       89.12281
C         58.26184       94.48471       89.40753
O         58.76300       95.37071       88.72965
C         60.06050       92.66110       89.26048
C         60.58800       92.77416       90.66394
O         61.73989       92.45232       90.88873
O         59.81294       93.19814       91.68026
H         58.58963       93.18709       86.98859
H         58.02718       92.39656       89.85417
H         60.67357       93.29058       88.57979
H         60.18034       91.59770       88.95696
N         57.34833       94.77583       90.36964
C         56.81309       96.10291       90.65110
C         57.89700       97.05585       91.11512
O         57.97146       98.15891       90.59264
C         55.67036       95.94740       91.67788
C         54.78036       97.17835       91.87720
C         53.53641       96.76890       92.69547
C         52.51648       97.89873       92.88891
N         53.02137       98.95400       93.76528
H         56.95430       93.98113       90.89253
H         56.34588       96.49667       89.72065
H         56.07184       95.62230       92.65863
H         55.00735       95.14870       91.27392
H         54.43429       97.54127       90.88484
H         55.36104       97.98097       92.37658
H         53.83489       96.36214       93.68641
H         53.01242       95.95883       92.13919
H         51.60360       97.46239       93.35366
H         52.22511       98.32146       91.90173
H         53.26134       98.55213       94.70097
H         53.85975       99.41473       93.34773
H         52.27284       99.67275       93.89209
N         58.80636       96.67295       92.05631
C         59.87697       97.53860       92.54628
C         61.26059       97.10251       92.06022
O         62.22752       97.75822       92.42497
C         59.77458       97.66359       94.08196
C         59.81080       96.34593       94.80250
O         60.79563       95.63386       94.74137
O         58.74988       95.95055       95.53146
H         58.75406       95.71094       92.42484
H         59.75852       98.56998       92.14677
H         58.80648       98.15546       94.31898
H         60.58709       98.31689       94.46806
N         61.43676       96.08298       91.16519
C         62.72651       95.78260       90.55268
C         63.78404       95.23289       91.49126
O         64.91565       95.09670       91.04759
H         60.62056       95.56681       90.81494
H         63.11190       96.71885       90.09122
H         62.58844       95.04332       89.73445
N         63.51726       94.89681       92.78591
C         64.55965       94.46848       93.72092
C         65.24186       93.15240       93.35121
O         66.22777       92.81949       93.99542
C         64.00343       94.38364       95.15934
C         63.04945       93.22704       95.36450
N         63.30680       92.28727       96.30054
O         62.03698       93.13487       94.68792
H         62.55901       95.01296       93.13196
H         65.33057       95.27092       93.71636
H         63.48933       95.33708       95.40694
H         64.85755       94.28020       95.86328
H         64.14942       92.33686       96.89181
H         62.64906       91.50940       96.43729
N         64.77195       92.34151       92.36091
C         65.40519       91.09272       91.97379
C         64.51852       89.87987       92.17632
O         64.95176       88.80396       91.79432
H         63.92934       92.61276       91.84381
H         66.34887       90.91742       92.53163
H         65.66102       91.16380       90.89376
N         63.26816       89.95812       92.73092
C         62.39936       88.78222       92.83745
C         60.93586       89.15961       93.00651
O         60.62304       90.31744       93.23483
C         62.90596       87.80690       93.93638
C         62.90131       88.36352       95.35119
C         61.69629       88.57843       96.04779
C         64.11745       88.63242       96.00731
C         61.71029       89.04920       97.36697
C         64.12864       89.11135       97.32214
C         62.92829       89.31843       98.00812
O         62.95851       89.77673       99.27659
H         62.90823       90.87690       93.01582
H         62.43268       88.26578       91.85267
H         63.94256       87.51474       93.66958
H         62.31468       86.86608       93.92972
H         60.74360       88.36427       95.58449
H         65.06181       88.47441       95.50222
H         60.77492       89.20183       97.89127
H         65.07295       89.31951       97.81022
H         62.15246       89.93592       99.78836
N         59.97303       88.20263       92.84817
C         58.54459       88.48390       92.97532
C         57.92738       87.65322       94.08339
O         58.51196       86.67694       94.52801
C         57.77696       88.25952       91.63354
C         58.01285       86.83809       91.05196
C         58.15167       89.35112       90.61821
C         57.08452       86.48788       89.88585
H         60.26707       87.24123       92.62493
H         58.39618       89.54169       93.27958
H         56.69080       88.37909       91.84764
H         57.82771       86.08022       91.84184
H         59.06657       86.73601       90.71163
H         57.93368       90.34916       91.04925
H         59.22797       89.30250       90.35204
H         57.54731       89.26334       89.69388
H         57.22641       87.16621       89.02139
H         57.30340       85.45491       89.54030
H         56.02528       86.52925       90.21751
N         56.72550       88.04226       94.59600
C         56.00277       87.32516       95.63792
C         54.58686       87.02518       95.16180
O         54.24201       87.37021       94.04150
C         56.00413       88.15935       96.93001
O         55.34512       89.38014       96.73426
H         56.30728       88.91340       94.24062
H         56.50636       86.36213       95.87077
H         57.05717       88.34575       97.23772
H         55.50850       87.58456       97.74324
H         55.20313       89.76550       97.63798
N         53.70998       86.36544       95.96989
C         52.34955       86.02836       95.55990
C         51.51846       87.26640       95.27631
O         50.98724       87.37850       94.18021
C         51.66422       85.18742       96.64014
H         54.03327       86.06694       96.90161
H         52.39874       85.40161       94.64123
H         50.64451       84.90035       96.30548
H         52.24918       84.26020       96.81730
H         51.58741       85.74781       97.59577
N         51.34738       88.23040       96.22492
C         50.54755       89.43133       96.00626
C         51.10259       90.25737       94.86515
O         50.34682       90.59570       93.96434
C         50.49205       90.28578       97.27797
H         51.80448       88.10172       97.14110
H         49.49806       89.13865       95.77342
H         49.85285       91.17986       97.10608
H         50.04321       89.69873       98.10749
H         51.50537       90.62277       97.58148
N         52.42087       90.61494       94.83350
C         52.97961       91.46382       93.78322
C         52.80191       90.85848       92.38793
O         52.87950       91.59209       91.41227
C         54.47736       91.75184       94.06689
C         55.03197       92.87472       93.18219
C         56.51664       93.16907       93.38007
O         56.85429       93.53109       94.68598
O         57.33825       92.10529       93.00580
H         53.03264       90.29477       95.59941
H         52.41079       92.41974       93.83023
H         55.05927       90.81821       93.92227
H         54.59277       92.07520       95.12453
H         54.45880       93.80146       93.39724
H         54.91319       92.63248       92.10971
N         52.56154       89.53006       92.21079
C         52.37543       88.94174       90.90310
H         51.49183       89.39534       90.40613
H         53.28048       89.10329       90.28027
H         52.20306       87.84848       91.00335
H         52.52137       88.90536       93.02226
Ca        58.93734       92.61994       94.53316
O         59.94873       93.33518       97.17138
H         60.06753       94.30818       97.30798
H         60.64435       92.91657       97.73706
O         58.29494       90.27738       95.93528
H         57.45617       90.77777       95.76889
H         58.59425       90.58256       96.82717

Ca 1.0



