%chk=holoCaM.loop3.water2.frame317.chk
%nprocshared=20
%mem=10GB
%nosave
#b3lyp/svp scf=(tight,noincore,xqc) Test 
#IOP(5/87=12) Density=Current Pop=(MK,readradii) iop(6/33=2) iop(6/42=6)

holoCaM.loop3.water2.frame317 

   0  1 
C        106.71653       33.58892       91.87998
C        106.59895       34.99924       92.37792
O        106.46619       35.19300       93.57663
H        107.60150       33.10464       92.34250
H        105.80221       33.02057       92.14934
H        106.83667       33.55887       90.77596
N        106.62630       36.03862       91.49968
C        106.52346       37.43948       91.87803
C        105.20489       37.95623       91.35787
O        105.15539       38.69055       90.38264
C        107.78083       38.17781       91.37702
C        107.79350       39.67195       91.58655
O        108.01184       40.39067       90.62682
O        107.62710       40.24139       92.79977
H        106.70758       35.83066       90.49218
H        106.49015       37.54315       92.96952
H        107.92001       37.97582       90.29264
H        108.65528       37.75452       91.90997
N        104.06691       37.52783       91.97293
C        102.71906       37.81542       91.49750
C        102.30816       39.28493       91.65175
O        101.24146       39.63279       91.16601
C        101.74081       36.86474       92.22896
C        100.39845       36.65804       91.51570
C         99.57512       35.59321       92.26257
C         98.28371       35.18784       91.53528
N         98.55392       34.46439       90.28900
H        104.17898       36.88802       92.77614
H        102.70670       37.54205       90.41903
H        101.60483       37.18907       93.28482
H        102.21443       35.85665       92.24041
H        100.62634       36.30769       90.48832
H         99.81611       37.60019       91.45342
H         99.31140       36.00242       93.26224
H        100.18172       34.67345       92.41855
H         97.65660       36.08327       91.33385
H         97.71383       34.51216       92.21116
H         99.02944       35.07672       89.59032
H         99.14443       33.62216       90.48238
H         97.64756       34.14519       89.87776
N        103.09515       40.20593       92.29135
C        102.75757       41.62985       92.38917
C        103.72630       42.49925       91.59559
O        103.49039       43.69604       91.50129
C        102.65456       42.09673       93.86085
C        103.91130       41.91174       94.67049
O        104.36633       40.67681       94.95163
O        104.48825       42.88174       95.13412
H        103.98700       39.89886       92.69873
H        101.76252       41.81496       91.92973
H        101.83404       41.54840       94.36892
H        102.38250       43.17662       93.86222
N        104.81046       41.97224       90.96225
C        105.69656       42.73688       90.11195
C        106.39055       43.84262       90.85424
O        106.33099       44.97432       90.39455
H        105.02298       40.97539       91.04910
H        105.13180       43.14150       89.24413
H        106.47245       42.05882       89.70354
N        107.10264       43.58393       91.98936
C        107.90783       44.59933       92.66033
C        109.39515       44.26608       92.58688
O        110.19591       45.10925       92.96395
C        107.41410       44.84656       94.10353
C        107.76251       43.75801       95.09476
N        108.48623       44.05402       96.20210
O        107.37874       42.61295       94.91390
H        107.09250       42.62652       92.36422
H        107.78317       45.56411       92.12388
H        106.31140       44.98999       94.08451
H        107.86138       45.79919       94.45984
H        108.80918       45.01621       96.38406
H        108.71728       43.32424       96.89140
N        109.83978       43.06076       92.11441
C        111.23855       42.71373       91.94899
C        111.72288       41.72517       92.98994
O        112.86406       41.30009       92.87665
H        109.17403       42.32631       91.85214
H        111.88964       43.61089       92.01862
H        111.36597       42.29347       90.92686
N        110.96748       41.38673       94.07896
C        111.48129       40.59243       95.19205
C        110.53255       39.47348       95.57187
O        109.35037       39.74235       95.72586
C        111.64778       41.47956       96.43937
C        112.60926       42.62030       96.23343
C        112.18724       43.80546       95.60847
C        113.93193       42.51824       96.69170
C        113.07477       44.87326       95.44906
C        114.82108       43.58180       96.52162
C        114.39380       44.76574       95.90325
O        115.23886       45.80383       95.74445
H        110.02808       41.79594       94.18945
H        112.48831       40.17514       94.96793
H        112.03968       40.82391       97.24905
H        110.67775       41.88558       96.79698
H        111.16797       43.90870       95.26053
H        114.27713       41.61208       97.17403
H        112.73507       45.78643       94.97668
H        115.83963       43.48495       96.87508
H        116.15678       45.76961       96.04963
N        111.00239       38.22518       95.87277
C        110.15342       37.16315       96.41455
C        110.57202       36.81932       97.83889
O        111.70661       36.42393       98.06586
C        110.12832       35.89721       95.50550
C        111.51837       35.23077       95.30420
C        109.48319       36.25788       94.16096
C        111.44951       33.89582       94.56229
H        112.01277       38.04169       95.77977
H        109.09864       37.51172       96.47156
H        109.46256       35.15927       96.00765
H        111.97086       34.98429       96.28081
H        112.20410       35.91761       94.76420
H        109.31661       35.35749       93.53827
H        108.48942       36.72107       94.33117
H        110.12229       36.97392       93.60433
H        112.46720       33.45428       94.51051
H        110.78808       33.19037       95.11051
H        111.08309       34.01978       93.52503
N        109.68494       36.94776       98.86539
C        109.98759       36.51566      100.22687
C        109.95885       34.99319      100.31898
O        109.66115       34.33653       99.33308
C        108.96788       37.12474      101.20927
O        107.66738       36.67310      100.93146
H        108.75241       37.33747       98.66762
H        110.98822       36.90244      100.52118
H        109.03228       38.23729      101.14753
H        109.21694       36.85773      102.25729
H        107.13060       37.45978      100.65230
N        110.21891       34.36453      101.49933
C        110.06500       32.92338      101.69237
C        108.62224       32.50716      101.45810
O        108.38759       31.53845      100.74968
C        110.47397       32.53331      103.11647
H        110.49972       34.94096      102.30706
H        110.73724       32.36873      100.99919
H        109.84225       33.05070      103.86943
H        110.37049       31.43487      103.25430
H        111.53706       32.80480      103.28987
N        107.60352       33.23878      101.99650
C        106.18465       32.93934      101.81491
C        105.83113       32.76729      100.35278
O        105.25388       31.75033       99.99416
C        105.33484       34.07443      102.40685
H        107.85515       34.08019      102.53878
H        105.93399       31.99970      102.35441
H        105.55127       34.19351      103.48904
H        105.55529       35.03876      101.89811
H        104.25308       33.85351      102.28450
N        106.17188       33.72295       99.44995
C        105.86769       33.63534       98.02678
C        106.45902       32.37148       97.42646
O        105.71249       31.59328       96.84795
C        106.37001       34.89972       97.30416
C        105.57684       36.13926       97.76623
C        106.05517       37.36977       97.07021
O        106.04233       37.41540       95.73139
O        106.46252       38.32615       97.70713
H        106.69172       34.54091       99.79854
H        104.76401       33.59105       97.88408
H        106.21483       34.77588       96.21049
H        107.45839       35.03938       97.48949
H        105.66642       36.28966       98.86177
H        104.50244       35.99480       97.52253
N        107.77768       32.07177       97.56389
C        108.34105       30.83873       97.05756
H        109.41682       30.77384       97.32584
H        107.81517       29.96931       97.50964
H        108.24038       30.79803       95.95287
H        108.39338       32.71612       98.07278
Ca       106.86363       39.16927       94.61297
O        108.88254       40.54021       98.45000
H        108.45006       39.65936       98.56356
H        109.84853       40.34519       98.53758
O        105.62619       41.29521       97.81950
H        104.64859       41.21166       97.95359
H        105.99048       41.43370       98.72966

Ca 1.0



