%chk=holoCaM.loop3.water2.frame59.chk
%nprocshared=20
%mem=10GB
%nosave
#b3lyp/svp scf=(tight,noincore,xqc) Test 
#IOP(5/87=12) Density=Current Pop=(MK,readradii) iop(6/33=2) iop(6/42=6)

holoCaM.loop3.water2.frame59 

   0  1 
C         74.99439       -2.04639       17.77077
C         74.29951       -1.45498       18.95727
O         74.30222       -2.08433       20.00610
H         76.06218       -2.21878       18.01629
H         74.51570       -3.01654       17.51685
H         74.92865       -1.37832       16.88726
N         73.63911       -0.26578       18.85606
C         72.87658        0.29964       19.95617
C         71.41201        0.08945       19.62596
O         70.92344        0.66668       18.66353
C         73.26630        1.77682       20.17157
C         72.61782        2.33364       21.39784
O         72.86123        1.77720       22.59966
O         71.84499        3.27311       21.31194
H         73.60716        0.21435       17.94293
H         73.11008       -0.25171       20.89314
H         72.98863        2.37540       19.27509
H         74.36117        1.86235       20.31038
N         70.68680       -0.83456       20.32223
C         69.36529       -1.28679       19.89104
C         68.24692       -0.40742       20.43067
O         67.10695       -0.60874       20.03525
C         69.12840       -2.75214       20.32342
C         70.21901       -3.74653       19.86928
C         70.35222       -3.88244       18.34562
C         71.42142       -4.93017       17.99678
N         71.54540       -5.10107       16.55005
H         71.15820       -1.34572       21.08326
H         69.32244       -1.25268       18.77994
H         68.14504       -3.09861       19.93594
H         69.09019       -2.78619       21.43450
H         69.95392       -4.74167       20.28800
H         71.20260       -3.45833       20.29659
H         70.64746       -2.91012       17.89695
H         69.37480       -4.19662       17.91937
H         71.14795       -5.90703       18.45471
H         72.40347       -4.61155       18.41356
H         72.27842       -5.82085       16.35384
H         70.63666       -5.42789       16.14841
H         71.82803       -4.19913       16.10269
N         68.49495        0.58476       21.33125
C         67.48501        1.51179       21.83450
C         67.78571        2.93168       21.35939
O         66.99073        3.81755       21.64074
C         67.34262        1.38276       23.37467
C         68.65809        1.42876       24.09050
O         69.23608        2.60428       24.37862
O         69.33085        0.41068       24.15627
H         69.45993        0.72486       21.66143
H         66.48536        1.27314       21.40938
H         66.89195        0.39044       23.59625
H         66.64743        2.14742       23.78238
N         68.85875        3.20866       20.55530
C         69.06915        4.48433       19.89617
C         69.37093        5.66467       20.78948
O         69.51205        6.74413       20.23028
H         69.51530        2.46455       20.28821
H         68.16551        4.71540       19.29088
H         69.92468        4.38290       19.19210
N         69.47629        5.59101       22.15104
C         69.68667        6.80161       22.94364
C         71.04415        7.46756       22.68884
O         71.21002        8.59692       23.12690
C         69.43402        6.56973       24.45568
C         70.40651        5.65519       25.15418
N         70.29607        5.43439       26.48355
O         71.30024        5.11418       24.53267
H         69.34074        4.69004       22.63004
H         68.89829        7.52070       22.62463
H         68.41097        6.15459       24.58873
H         69.47212        7.55473       24.96830
H         69.54934        5.88433       27.03197
H         70.96538        4.81837       26.96786
N         72.05944        6.84017       22.01438
C         73.34280        7.47329       21.71796
C         74.50154        6.89185       22.51367
O         75.61196        7.37933       22.35356
H         71.93831        5.86755       21.70225
H         73.31070        8.55690       21.96342
H         73.53920        7.38863       20.62823
N         74.30643        5.92644       23.45461
C         75.30251        5.50657       24.43354
C         75.35623        3.99256       24.53701
O         74.31098        3.38100       24.71348
C         74.86462        6.06835       25.80166
C         74.83238        7.57930       25.79975
C         73.61036        8.26529       25.90548
C         76.02474        8.31582       25.69328
C         73.58252        9.66314       25.90347
C         75.99513        9.71375       25.70118
C         74.77234       10.39226       25.80637
O         74.72867       11.73996       25.81755
H         73.36315        5.55543       23.58418
H         76.31224        5.91184       24.20125
H         75.55147        5.72847       26.60711
H         73.85170        5.66915       26.03490
H         72.67765        7.72031       25.98059
H         76.97802        7.80828       25.61453
H         72.63430       10.18013       25.98033
H         76.92260       10.26788       25.62726
H         75.52898       12.28174       25.76344
N         76.54726        3.32612       24.52502
C         76.65549        1.88403       24.73560
C         77.34763        1.61430       26.05982
O         78.53132        1.89591       26.19420
C         77.39215        1.20914       23.53494
C         76.46945        1.24533       22.29025
C         77.83093       -0.23488       23.85907
C         77.10461        0.66139       21.02585
H         77.42003        3.86693       24.42065
H         75.64801        1.42307       24.81122
H         78.32485        1.77928       23.32601
H         76.19685        2.30061       22.07540
H         75.53346        0.68171       22.50347
H         78.54127       -0.24846       24.70799
H         76.96167       -0.86444       24.10571
H         78.39081       -0.69333       23.02201
H         78.04097        1.20359       20.78058
H         77.31617       -0.42089       21.13852
H         76.40173        0.75891       20.17449
N         76.65355        1.03063       27.08205
C         77.28793        0.57750       28.31415
C         78.10313       -0.68002       28.04738
O         78.03254       -1.22813       26.95763
C         76.22150        0.26983       29.38726
O         75.36655       -0.75286       28.95169
H         75.63974        0.88289       26.97043
H         77.93624        1.39199       28.70599
H         75.62895        1.19132       29.58128
H         76.71999       -0.04032       30.33290
H         74.74098       -0.93283       29.70073
N         78.87977       -1.21853       29.02371
C         79.58005       -2.48758       28.86255
C         78.58655       -3.62741       28.72276
O         78.74793       -4.45358       27.83589
C         80.48114       -2.75523       30.07091
H         78.95961       -0.71558       29.92105
H         80.25050       -2.44650       27.97382
H         79.89023       -2.81372       31.00886
H         81.02849       -3.71264       29.92768
H         81.23121       -1.94102       30.16461
N         77.52566       -3.72069       29.57753
C         76.57270       -4.82621       29.58275
C         75.96377       -5.07791       28.21747
O         76.12522       -6.18029       27.71098
C         75.46672       -4.56907       30.61543
H         77.40215       -2.96995       30.27487
H         77.11604       -5.74747       29.89160
H         74.89903       -3.64698       30.36495
H         74.76052       -5.42584       30.64753
H         75.91062       -4.44256       31.62577
N         75.25216       -4.11976       27.55715
C         74.66510       -4.36412       26.24220
C         75.74519       -4.74177       25.23991
O         75.61427       -5.77178       24.59353
C         73.77854       -3.18751       25.76357
C         74.50717       -1.87668       25.45083
C         73.53243       -0.81545       25.02442
O         72.84371       -0.97522       24.02895
O         73.41580        0.32054       25.73544
H         75.12131       -3.20271       28.00682
H         73.95924       -5.22087       26.33487
H         73.01078       -2.99589       26.54578
H         73.24872       -3.51232       24.84028
H         75.20987       -2.04412       24.61558
H         75.06626       -1.52740       26.34302
N         76.87538       -3.98918       25.11835
C         77.97277       -4.32155       24.23295
H         78.88843       -4.49734       24.83695
H         77.77226       -5.23257       23.63134
H         78.15814       -3.47404       23.54147
H         76.98740       -3.15502       25.70950
Ca        71.45433        2.40966       24.21322
O         72.75930        2.75429       27.34544
H         72.15942        2.85268       28.12695
H         73.50469        3.38120       27.52210
O         70.51627        0.61741       26.91986
H         70.95085        0.36587       27.77301
H         69.55392        0.68909       27.14134

Ca 1.0



