%chk=holoCaM-CaMKII.loop2.water2.frame328.chk
%nprocshared=20
%mem=10GB
%nosave
#b3lyp/svp scf=(tight,noincore,xqc) Test 
#IOP(5/87=12) Density=Current Pop=(MK,readradii) iop(6/33=2) iop(6/42=6)

holoCaM-CaMKII.loop2.water2.frame328 

   -2  1 
C         40.61868       56.61372       49.49694
C         39.58904       56.27272       48.46012
O         39.55703       55.14510       47.99417
H         41.25931       57.44388       49.13510
H         40.10764       56.93039       50.43192
H         41.25714       55.73426       49.72739
N         38.68209       57.20940       48.07570
C         37.58511       56.93282       47.15643
C         38.06219       56.61434       45.74628
O         38.76838       57.41976       45.15593
C         36.62239       58.13247       47.11137
C         35.42465       57.80873       46.26943
O         34.66044       56.74613       46.58155
O         35.15671       58.48446       45.29006
H         38.73967       58.14240       48.51414
H         37.00636       56.07759       47.56565
H         37.14352       59.03250       46.71671
H         36.26727       58.35853       48.13953
N         37.62973       55.47859       45.12400
C         37.93344       55.12647       43.74445
C         36.67681       55.04714       42.87041
O         36.83336       54.81714       41.67911
C         38.65593       53.77475       43.73557
H         37.02935       54.83303       45.64537
H         38.60327       55.88883       43.29146
H         38.00186       52.98589       44.16956
H         38.93076       53.47884       42.70113
H         39.58376       53.83535       44.34300
N         35.40989       55.19373       43.37234
C         34.19802       55.07166       42.56084
C         33.30896       56.31284       42.67009
O         33.02894       56.90083       41.63423
C         33.48080       53.73221       42.85206
C         33.29922       53.35869       44.29340
O         32.59466       54.01359       45.03641
O         33.89375       52.24339       44.75653
H         35.27799       55.34648       44.37990
H         34.45735       54.98976       41.48080
H         34.12030       52.93145       42.41870
H         32.50591       53.69822       42.31996
N         32.85068       56.79287       43.86373
C         32.03448       57.99958       43.99032
C         30.73456       57.78730       44.74915
O         30.02856       58.76410       44.95767
H         33.13249       56.32280       44.72956
H         31.79107       58.43687       42.99806
H         32.62350       58.75354       44.55254
N         30.34287       56.55946       45.19575
C         29.10146       56.31618       45.93220
C         29.06591       56.91067       47.34887
O         28.05787       56.72691       48.01785
C         28.78636       54.80183       45.95176
C         29.77447       53.91243       46.66061
N         29.54952       52.58023       46.68104
O         30.76754       54.36999       47.20580
H         30.91696       55.74787       44.94707
H         28.26584       56.77322       45.35694
H         28.72182       54.45320       44.89774
H         27.79087       54.64508       46.41979
H         28.72322       52.17855       46.21668
H         30.19267       51.94243       47.15731
N         30.08081       57.66583       47.86439
C         30.00516       58.31715       49.16704
C         30.23288       57.40348       50.35855
O         30.19357       57.91132       51.47033
H         30.90415       57.87649       47.28896
H         29.03395       58.85122       49.25867
H         30.80644       59.08577       49.22049
N         30.51892       56.07648       50.22514
C         30.83029       55.19660       51.35277
C         32.23017       54.61545       51.20521
O         32.87493       54.83882       50.19076
C         29.77943       54.05750       51.43761
C         28.39848       54.60201       51.80324
O         29.68794       53.36729       50.21623
H         30.54501       55.66448       49.28519
H         30.82170       55.75864       52.31246
H         30.04156       53.34317       52.25065
H         30.49180       52.78977       50.14441
H         27.67429       53.76298       51.88192
H         28.44180       55.11606       52.78780
H         28.03450       55.31622       51.03566
N         32.74083       53.80778       52.17969
C         34.00967       53.10141       52.06134
C         33.69536       51.65248       51.75286
O         32.95375       51.01801       52.49023
C         34.90124       53.25956       53.33740
C         35.38269       54.73000       53.47231
C         36.11296       52.29896       53.27577
C         36.28606       54.99352       54.68412
H         32.16112       53.60392       53.00782
H         34.59823       53.49686       51.21232
H         34.30538       52.97832       54.23386
H         34.49648       55.39404       53.55521
H         35.95232       55.01995       52.56256
H         36.75772       52.52842       52.40218
H         36.71943       52.34668       54.20124
H         35.77847       51.24394       53.21090
H         36.55179       56.07098       54.72062
H         35.76991       54.71755       55.62668
H         37.24281       54.43574       54.60935
N         34.28753       51.05841       50.68065
C         34.11227       49.66176       50.31157
C         35.34805       48.88434       50.71244
O         36.25649       49.46216       51.28512
C         33.82082       49.58126       48.80307
C         32.45270       50.12793       48.50044
O         32.29776       51.30679       47.87517
O         31.46617       49.45632       48.75471
H         34.97068       51.60217       50.13216
H         33.27691       49.19628       50.87790
H         33.84786       48.53756       48.42718
H         34.60743       50.14303       48.25144
N         35.40991       47.53856       50.53011
C         36.48123       46.71572       51.07828
C         37.87705       47.06941       50.55461
O         38.73508       47.30984       51.39189
C         36.19307       45.21701       50.86109
C         37.21920       44.37974       51.58525
C         37.26825       44.38191       52.99141
C         38.15032       43.61409       50.86603
C         38.23509       43.63180       53.66442
C         39.12141       42.87103       51.54392
C         39.16349       42.87938       52.94129
H         34.61983       47.07150       50.05893
H         36.47639       46.88064       52.17999
H         36.19428       44.99525       49.77726
H         35.18379       44.95234       51.24542
H         36.55819       44.96367       53.56660
H         38.13649       43.60740       49.78326
H         38.26644       43.63826       54.74644
H         39.84483       42.29240       50.98529
H         39.91634       42.30461       53.46415
N         38.21847       47.10022       49.22529
C         39.57735       47.34956       48.75160
C         40.07833       48.71798       49.17305
O         41.23027       48.81951       49.57338
C         39.47598       47.14996       47.23435
C         38.04619       47.53296       46.93136
C         37.30199       46.91864       48.11482
H         40.30056       46.59254       49.13185
H         40.26383       47.64962       46.63085
H         39.53808       46.05481       47.03645
H         37.97295       48.63889       46.98790
H         37.66733       47.21590       45.93674
H         36.34131       47.45829       48.22451
H         37.14315       45.83149       47.95494
N         39.24837       49.79340       49.20529
C         39.65481       51.10012       49.70815
C         40.12771       50.99136       51.15068
O         41.21841       51.44916       51.45847
C         38.47203       52.07398       49.68151
C         37.90796       52.37928       48.28299
C         36.72168       53.29360       48.42034
O         35.98911       53.64372       47.36108
O         36.34120       53.65604       49.51944
H         38.26904       49.65948       48.91983
H         40.46803       51.52069       49.07549
H         38.79508       53.03761       50.13589
H         37.65323       51.64602       50.30188
H         37.56295       51.44790       47.78661
H         38.68166       52.84158       47.63794
N         39.33960       50.38823       52.08397
C         39.67129       50.26481       53.48604
H         40.62331       50.77221       53.74077
H         38.85560       50.71656       54.09013
H         39.75020       49.18916       53.75026
H         38.45319       49.97535       51.78537
Ca        34.01525       52.64775       47.43931
O         33.02617       57.26609       48.69272
H         33.27643       57.41004       49.63822
H         33.13343       58.15499       48.27102
O         35.88836       56.44206       50.02001
H         35.90230       57.13629       50.72382
H         35.20304       55.79952       50.32613

Ca 1.0



