%chk=holoCaM-CaMKII.loop3.water2.frame71.chk
%nprocshared=20
%mem=10GB
%nosave
#b3lyp/svp scf=(tight,noincore,xqc) Test 
#IOP(5/87=12) Density=Current Pop=(MK,readradii) iop(6/33=2) iop(6/42=6)

holoCaM-CaMKII.loop3.water2.frame71 

   0  1 
C         75.35491       49.98580       81.19764
C         76.73418       50.07959       81.77892
O         77.37825       49.05876       81.96673
H         74.62276       50.45310       81.89049
H         75.33001       50.52381       80.22675
H         75.06328       48.92716       81.03129
N         77.24073       51.29823       82.10787
C         78.56162       51.51056       82.68305
C         78.45841       51.54661       84.19939
O         78.63479       52.59104       84.81082
C         79.17023       52.79053       82.07350
C         80.52422       53.10576       82.63971
O         80.72638       54.29006       83.24352
O         81.43684       52.29897       82.56548
H         76.63720       52.12441       81.97110
H         79.24953       50.67406       82.41978
H         78.49661       53.65429       82.26487
H         79.26327       52.66203       80.97487
N         78.20638       50.39187       84.87394
C         78.16723       50.29474       86.32900
C         79.52239       50.66693       86.91781
O         79.57772       51.55959       87.75211
C         77.75007       48.86623       86.76001
C         76.29721       48.56310       86.33781
C         75.86010       47.14587       86.73516
C         74.37019       46.87589       86.44246
N         74.04215       46.96657       85.01748
H         78.07349       49.53227       84.32236
H         77.39953       50.99418       86.73037
H         77.80862       48.78713       87.86817
H         78.44400       48.11585       86.32015
H         76.19607       48.67205       85.23975
H         75.62666       49.29970       86.83206
H         76.01287       47.01598       87.82866
H         76.48792       46.39699       86.20435
H         73.74009       47.59294       87.01441
H         74.12717       45.85096       86.80073
H         74.63858       46.30921       84.46493
H         73.03860       46.70364       84.88507
H         74.16354       47.94340       84.66804
N         80.66048       50.02804       86.51766
C         81.99000       50.30485       87.07638
C         82.51186       51.73411       86.85994
O         83.55356       52.04810       87.42052
C         83.02788       49.28971       86.54972
C         83.29216       49.43564       85.07728
O         84.52768       49.74912       84.65055
O         82.39905       49.26821       84.26431
H         80.55525       49.27247       85.82565
H         81.91326       50.14591       88.17516
H         82.68219       48.25464       86.76016
H         83.98506       49.43903       87.09643
N         81.85116       52.66196       86.10949
C         82.25646       54.05943       86.03900
C         83.49668       54.36373       85.21638
O         83.85115       55.53386       85.17359
H         80.97069       52.40856       85.64993
H         82.39687       54.44160       87.07421
H         81.42794       54.64833       85.59680
N         84.21770       53.41734       84.54252
C         85.44749       53.76875       83.81961
C         85.20340       54.66326       82.59945
O         86.17162       55.17661       82.05623
C         86.28102       52.50358       83.48110
C         85.74534       51.60070       82.35347
N         86.42985       51.85183       81.09042
O         84.37035       51.77927       82.20183
H         83.93087       52.43100       84.60567
H         86.07017       54.34183       84.54155
H         86.33612       51.89424       84.40727
H         87.32834       52.79129       83.24250
H         87.44368       51.62496       81.22090
H         86.07794       51.16147       80.39037
N         83.94770       54.88528       82.10577
C         83.65082       55.78472       81.00095
C         83.18369       55.06122       79.75531
O         82.81922       55.74142       78.80791
H         83.14672       54.39687       82.52377
H         84.53594       56.39127       80.71407
H         82.85917       56.49074       81.33743
N         83.21953       53.69846       79.65282
C         82.85427       52.97825       78.44036
C         81.78583       51.93478       78.70511
O         81.47231       51.63192       79.84401
C         84.07774       52.22888       77.86693
C         85.18637       53.11725       77.36703
C         86.04376       53.79475       78.25048
C         85.39408       53.23793       75.98331
C         87.09666       54.57059       77.75241
C         86.43354       54.02384       75.48854
C         87.29367       54.68908       76.37144
O         88.31114       55.43875       75.90311
H         83.56134       53.14239       80.44016
H         82.46208       53.67819       77.67082
H         83.73053       51.61310       77.01054
H         84.48784       51.51439       78.61103
H         85.91604       53.70822       79.32002
H         84.74590       52.72536       75.28308
H         87.76387       55.07514       78.43995
H         86.57115       54.10730       74.41821
H         88.47776       55.53949       74.95466
N         81.21939       51.30966       77.63519
C         80.31774       50.17151       77.71659
C         80.93789       49.06895       76.87551
O         81.18828       49.30110       75.70097
C         78.91090       50.55414       77.17442
C         78.31011       51.70826       78.01865
C         77.97899       49.32117       77.18729
C         77.00148       52.26250       77.45291
H         81.46472       51.64649       76.69168
H         80.19444       49.82897       78.76834
H         79.02315       50.90437       76.12380
H         79.02412       52.55867       78.03992
H         78.14680       51.36824       79.06503
H         78.39683       48.50055       76.56838
H         77.84146       48.94506       78.22433
H         76.98752       49.55594       76.75402
H         76.19634       51.50180       77.45271
H         76.66052       53.11134       78.08200
H         77.16160       52.63243       76.41752
N         81.17746       47.83365       77.39682
C         81.73107       46.74281       76.59973
C         80.64748       45.74334       76.24722
O         79.52125       45.87970       76.70034
C         82.90510       46.08497       77.34468
O         82.46865       45.55456       78.56605
H         80.90443       47.64533       78.36972
H         82.11499       47.12953       75.63139
H         83.68637       46.85349       77.52422
H         83.34510       45.27314       76.72616
H         83.27998       45.23849       79.04200
N         80.92387       44.72553       75.38401
C         79.94003       43.73006       74.97054
C         79.44988       42.93686       76.16071
O         78.25131       42.72820       76.28174
C         80.54228       42.78759       73.92674
H         81.87690       44.66535       74.99403
H         79.07803       44.23726       74.48059
H         79.77471       42.05705       73.59138
H         80.86858       43.37477       73.04108
H         81.41442       42.23849       74.33884
N         80.32776       42.50325       77.10776
C         79.91538       41.82437       78.32971
C         78.95817       42.69167       79.13268
O         77.87317       42.23171       79.45952
C         81.14529       41.48662       79.18395
H         81.33131       42.70333       76.96971
H         79.41713       40.86423       78.06813
H         81.83571       40.83126       78.61105
H         81.69576       42.40714       79.47576
H         80.83686       40.94764       80.10511
N         79.29885       43.96727       79.47797
C         78.44289       44.83676       80.28966
C         77.12348       45.18690       79.60731
O         76.26140       45.74404       80.27331
C         79.16020       46.16476       80.61129
C         80.46815       45.97579       81.39751
C         81.21112       47.26362       81.61276
O         80.78371       48.32884       81.19240
O         82.38784       47.22955       82.26328
H         80.21426       44.31455       79.16112
H         78.22147       44.30364       81.24113
H         78.49086       46.81568       81.21355
H         79.36756       46.67856       79.65055
H         81.15829       45.30142       80.85672
H         80.24041       45.52184       82.38476
N         76.90937       44.94347       78.28415
C         75.68910       45.28578       77.58479
H         74.93045       45.74419       78.25191
H         75.92583       46.00510       76.77228
H         75.25720       44.36781       77.13428
H         77.65180       44.52302       77.72152
Ca        83.42846       49.80968       81.64326
O         85.77719       48.15700       82.38900
H         86.28995       48.69772       83.04044
H         86.32237       48.18528       81.56362
O         84.11498       48.86572       79.05470
H         85.02119       49.21499       79.24482
H         84.01620       48.09460       79.66840

Ca 1.0



