%chk=holoCaM-CaMKII.loop1.water2.frame291.chk
%nprocshared=20
%mem=10GB
%nosave
#b3lyp/svp scf=(tight,noincore,xqc) Test 
#IOP(5/87=12) Density=Current Pop=(MK,readradii) iop(6/33=2) iop(6/42=6)

holoCaM-CaMKII.loop1.water2.frame291 

   0  1 
C         53.03237       26.54677       77.89244
C         54.42662       26.03939       77.65113
O         54.91490       25.24691       78.44350
H         52.31948       25.69676       77.91199
H         52.99323       27.07989       78.86537
H         52.71222       27.25227       77.09584
N         55.13307       26.46437       76.56742
C         56.48923       26.02030       76.26046
C         57.45456       26.36139       77.39067
O         57.61706       27.52632       77.72386
C         56.94346       26.65604       74.92871
C         58.38498       26.40232       74.57493
O         58.86635       25.16001       74.38639
O         59.13654       27.35268       74.43173
H         54.67521       27.12944       75.92419
H         56.46600       24.92116       76.12226
H         56.79926       27.75668       74.99519
H         56.29656       26.27686       74.10776
N         58.13962       25.35480       78.00555
C         59.11513       25.51425       79.07319
C         60.50205       25.00731       78.67325
O         61.38549       25.07984       79.51702
C         58.61966       24.84045       80.38568
C         58.09204       23.38953       80.32749
C         59.03348       22.35070       79.70370
C         58.41106       20.94082       79.79311
N         59.11075       19.97329       78.94843
H         57.97234       24.40234       77.68358
H         59.25282       26.59124       79.31572
H         57.77362       25.44767       80.77639
H         59.43014       24.90284       81.14394
H         57.14069       23.38621       79.75264
H         57.85088       23.08279       81.36862
H         60.02921       22.34749       80.19537
H         59.16838       22.63081       78.64886
H         57.35394       20.96491       79.46950
H         58.42399       20.60378       80.85148
H         60.13370       19.96085       79.15977
H         58.70771       19.02200       79.10814
H         58.95003       20.20835       77.94414
N         60.80444       24.55339       77.41470
C         62.16895       24.18131       77.02908
C         62.82408       25.28038       76.21115
O         63.98453       25.12801       75.85197
C         62.20351       22.91205       76.14214
C         61.43728       21.74433       76.66314
O         62.06868       20.60079       76.98909
O         60.22160       21.79202       76.68461
H         60.08323       24.56667       76.67992
H         62.78573       24.00750       77.93801
H         63.26635       22.61475       76.00142
H         61.78150       23.14296       75.14051
N         62.12707       26.37964       75.80693
C         62.64644       27.32521       74.84197
C         62.93238       26.61649       73.53592
O         64.02053       26.76845       73.00039
H         61.15701       26.52950       76.11634
H         63.54975       27.84052       75.23545
H         61.86546       28.09305       74.65180
N         61.99072       25.79161       72.98962
C         62.14885       25.08426       71.72301
C         61.05231       25.46903       70.72381
O         61.05185       24.93413       69.62413
C         62.24052       23.55471       71.96096
C         61.00939       22.86297       72.48152
O         59.97583       23.47025       72.68490
O         61.04897       21.53755       72.71479
H         61.11676       25.64782       73.51043
H         63.11900       25.36416       71.25725
H         63.06938       23.36689       72.67865
H         62.50795       23.06406       71.00089
N         60.12737       26.43670       71.00963
C         59.15734       26.94296       70.04986
C         57.95687       26.05427       69.77715
O         57.11561       26.49194       69.00386
H         60.17267       26.93819       71.90646
H         59.67934       27.19646       69.10140
H         58.74043       27.89006       70.45698
N         57.77448       24.83159       70.35661
C         56.58411       24.00330       70.12405
C         55.88377       23.66239       71.43647
O         56.42128       23.97039       72.48858
C         56.97009       22.72303       69.34391
C         57.44894       23.04416       67.92023
O         57.93914       21.97345       70.03476
H         58.50097       24.46816       70.98543
H         55.83996       24.56109       69.51424
H         56.06671       22.08645       69.23001
H         58.81833       22.42453       69.93414
H         58.35718       23.68334       67.93711
H         57.68819       22.10135       67.38438
H         56.64884       23.57391       67.36079
N         54.64237       23.08109       71.44749
C         53.90895       22.75021       72.67556
C         53.38002       21.31238       72.59100
O         52.52973       21.04944       71.75042
C         52.73260       23.76084       72.89114
C         53.26738       25.21832       72.96940
C         51.93446       23.41690       74.16670
C         52.17013       26.28202       73.07682
H         54.17004       22.92013       70.54401
H         54.58368       22.84127       73.55377
H         52.04620       23.68449       72.01843
H         53.83733       25.45022       72.04571
H         53.95435       25.32236       73.83773
H         51.54673       22.38069       74.13088
H         52.57215       23.53761       75.06602
H         51.04392       24.06689       74.27410
H         51.59455       26.18763       74.01932
H         52.63413       27.29091       73.07660
H         51.47842       26.21020       72.21080
N         53.83177       20.33070       73.42897
C         53.31335       18.95487       73.41298
C         51.93489       18.85858       74.07312
O         51.46278       19.82936       74.64770
C         54.27988       17.98111       74.15193
C         55.62194       17.83794       73.43909
O         54.49497       18.42326       75.46511
H         54.59708       20.56226       74.07470
H         53.23303       18.61195       72.35736
H         53.82081       16.96690       74.16992
H         54.87406       17.65998       75.97363
H         56.25607       17.10395       73.98180
H         55.47206       17.47251       72.40166
H         56.14957       18.80473       73.42376
N         51.25420       17.66881       74.05929
C         49.99157       17.43742       74.77598
C         50.16294       17.46221       76.29559
O         49.16576       17.40789       77.00223
C         49.36983       16.05832       74.41793
C         49.00481       15.92366       72.93587
O         50.19568       14.99606       74.83849
H         51.66271       16.89983       73.51131
H         49.27616       18.23580       74.47755
H         48.41009       15.96114       74.97254
H         50.96262       14.92282       74.21449
H         48.28718       16.72120       72.65033
H         49.90180       15.99444       72.28774
H         48.52347       14.93710       72.76547
N         51.39447       17.51033       76.86572
C         51.64923       17.51303       78.29701
C         51.81655       18.94652       78.73893
O         51.20734       19.34564       79.72181
C         52.86505       16.59912       78.56287
C         53.27935       16.49736       80.03833
C         54.26619       15.33696       80.28743
C         55.58684       15.43767       79.50345
N         56.44278       14.28298       79.78314
H         52.22061       17.55874       76.25951
H         50.78901       17.08800       78.86131
H         53.73651       16.94494       77.96925
H         52.57662       15.58467       78.20778
H         52.37769       16.28735       80.65304
H         53.71536       17.46355       80.37417
H         53.76246       14.38338       80.01508
H         54.49716       15.30257       81.37439
H         56.11937       16.37243       79.78488
H         55.38438       15.46112       78.41142
H         56.67674       14.24137       80.80145
H         55.95838       13.39995       79.49840
H         57.32857       14.36835       79.23401
N         52.54644       19.81099       77.98580
C         52.64901       21.23279       78.27752
C         51.31355       21.95503       78.13148
O         51.24124       23.11011       78.52789
C         53.70226       21.87842       77.35892
C         55.06210       21.20915       77.58159
C         56.13188       21.85544       76.78434
O         57.07727       22.34347       77.35989
O         56.10345       21.90335       75.44717
H         53.02296       19.44456       77.15474
H         52.99119       21.34267       79.33111
H         53.78448       22.96174       77.59668
H         53.40140       21.76848       76.29418
H         55.05339       20.13798       77.31336
H         55.30790       21.29368       78.66008
N         50.21972       21.35362       77.57453
C         48.92181       21.98829       77.47097
H         48.17014       21.35755       77.99161
H         48.90277       22.99851       77.93017
H         48.63654       22.07590       76.40219
H         50.28833       20.40121       77.19235
Ca        57.72681       23.25922       74.72444
O         57.27867       20.74082       72.41253
H         57.52085       19.93955       71.88231
H         58.14202       21.19103       72.58651
O         57.90281       19.46215       75.44278
H         57.18715       19.17947       76.06580
H         58.42041       18.63639       75.27124

Ca 1.0



