%chk=holoCaM.loop3.water2.frame155.chk
%nprocshared=20
%mem=10GB
%nosave
#b3lyp/svp scf=(tight,noincore,xqc) Test 
#IOP(5/87=12) Density=Current Pop=(MK,readradii) iop(6/33=2) iop(6/42=6)

holoCaM.loop3.water2.frame155 

   0  1 
C         -3.57273       99.14980       -7.33278
C         -2.62229       98.63988       -6.29270
O         -1.50956       99.13916       -6.20024
H         -4.49068       99.53362       -6.84087
H         -3.10991       99.96979       -7.92210
H         -3.84553       98.32351       -8.02256
N         -3.00487       97.63049       -5.46276
C         -2.13170       97.07639       -4.43566
C         -0.89969       96.47136       -5.10022
O         -1.04322       95.58067       -5.92703
C         -2.91051       96.04105       -3.60172
C         -2.09309       95.49916       -2.47366
O         -1.60119       96.29186       -1.50414
O         -1.84858       94.30884       -2.43435
H         -3.95900       97.25048       -5.56925
H         -1.83506       97.90095       -3.74938
H         -3.23842       95.20789       -4.26390
H         -3.81711       96.51042       -3.16865
N          0.34011       96.97476       -4.83506
C          1.54281       96.57600       -5.56485
C          1.89627       95.11729       -5.29921
O          1.84597       94.32502       -6.23003
C          2.68079       97.56894       -5.23200
C          3.92075       97.44665       -6.13366
C          4.86556       98.65685       -5.97165
C          5.51057       98.76970       -4.58062
N          6.32862       99.98021       -4.48604
H          0.41036       97.74332       -4.14995
H          1.32317       96.70425       -6.64998
H          2.95757       97.49190       -4.16058
H          2.26344       98.58635       -5.40585
H          3.58041       97.45521       -7.19249
H          4.45593       96.49113       -5.94718
H          4.29118       99.58575       -6.18626
H          5.67602       98.58024       -6.72876
H          6.14516       97.87453       -4.39916
H          4.73249       98.81630       -3.79055
H          6.78211      100.01691       -3.54461
H          7.07120       99.98059       -5.22222
H          5.72400      100.82731       -4.59752
N          2.24014       94.68347       -4.04973
C          2.50611       93.27116       -3.73529
C          1.25129       92.38570       -3.84465
O          1.38830       91.17365       -3.75303
C          3.21166       93.12773       -2.36115
C          2.46018       93.81205       -1.25914
O          1.20830       93.43965       -0.96232
O          2.94602       94.78455       -0.70339
H          2.32337       95.39082       -3.30601
H          3.23533       92.88579       -4.48342
H          4.21101       93.61041       -2.44575
H          3.37681       92.05699       -2.11388
N          0.01804       92.90680       -4.11334
C         -1.14734       92.11173       -4.47666
C         -1.82575       91.29971       -3.38831
O         -2.78957       90.63248       -3.73817
H         -0.08707       93.92304       -4.19705
H         -0.86354       91.43617       -5.31262
H         -1.92737       92.80232       -4.86704
N         -1.43965       91.28288       -2.07714
C         -2.14378       90.44379       -1.09936
C         -3.61413       90.83198       -0.88086
O         -4.32223       90.03866       -0.27328
C         -1.39799       90.35470        0.25695
C         -1.25135       91.65127        1.01769
N         -0.72515       91.64536        2.26379
O         -1.60165       92.70786        0.52221
H         -0.61581       91.82409       -1.78490
H         -2.14197       89.41063       -1.51443
H         -0.38208       89.93551        0.09328
H         -1.95577       89.64173        0.90332
H         -0.42570       90.76343        2.70450
H         -0.63006       92.52296        2.79633
N         -4.14328       92.01891       -1.30659
C         -5.54341       92.39358       -1.13106
C         -5.74663       93.49555       -0.10147
O         -6.87974       93.89745        0.10343
H         -3.53202       92.70958       -1.75729
H         -6.14905       91.52762       -0.78587
H         -5.94943       92.70948       -2.11584
N         -4.70386       93.96951        0.63800
C         -4.82448       94.89147        1.76054
C         -3.89448       96.07092        1.56516
O         -2.71370       95.87980        1.32758
C         -4.45313       94.12242        3.04203
C         -5.54772       93.13826        3.37735
C         -5.39380       91.76413        3.13527
C         -6.75274       93.60886        3.92825
C         -6.43572       90.87743        3.43375
C         -7.78386       92.72099        4.24052
C         -7.63044       91.35075        3.99060
O         -8.62163       90.48357        4.28035
H         -3.76938       93.59718        0.46391
H         -5.86283       95.27115        1.87741
H         -4.32833       94.80524        3.91128
H         -3.47806       93.60986        2.88264
H         -4.47935       91.38269        2.69843
H         -6.88840       94.66549        4.12600
H         -6.31561       89.82091        3.23110
H         -8.70115       93.10038        4.67399
H         -9.45948       90.77234        4.67052
N         -4.38349       97.33658        1.69330
C         -3.59028       98.54717        1.52699
C         -3.51008       99.26275        2.86957
O         -4.53458       99.53902        3.47397
C         -4.23069       99.41801        0.40389
C         -4.08400       98.67500       -0.95319
C         -3.58367      100.81238        0.33096
C         -4.76057       99.37386       -2.13265
H         -5.37752       97.45862        1.93590
H         -2.55177       98.31131        1.20947
H         -5.30837       99.56449        0.63870
H         -4.53633       97.66374       -0.87138
H         -3.00429       98.55029       -1.19078
H         -3.69473      101.34859        1.29492
H         -2.51123      100.72553        0.07716
H         -4.08074      101.45053       -0.42543
H         -5.84679       99.48735       -1.93723
H         -4.30909      100.36509       -2.33553
H         -4.62596       98.76270       -3.04899
N         -2.28960       99.63223        3.36006
C         -2.09099      100.36722        4.60692
C         -1.90463      101.84426        4.30177
O         -2.01618      102.22673        3.15394
C         -0.87968       99.77886        5.35827
O          0.30650       99.96127        4.62603
H         -1.46100       99.46815        2.77292
H         -2.98438      100.27587        5.26168
H         -1.05354       98.69961        5.57852
H         -0.75216      100.27076        6.34477
H          0.50632       99.10532        4.16510
N         -1.63958      102.74584        5.28867
C         -1.48716      104.17667        5.02703
C         -0.37143      104.45695        4.03470
O         -0.61754      105.13959        3.04856
C         -1.21028      104.92785        6.33290
H         -1.55303      102.40656        6.25699
H         -2.44290      104.57459        4.61720
H         -1.13027      106.01825        6.13235
H         -2.04608      104.76584        7.04610
H         -0.26583      104.57749        6.80041
N          0.87886      103.95209        4.22802
C          2.00920      104.22329        3.34290
C          1.70432      103.86637        1.90037
O          1.85776      104.72038        1.03879
C          3.24708      103.45089        3.81433
H          1.03082      103.34530        5.04969
H          2.25296      105.30852        3.39296
H          4.11527      103.68186        3.16031
H          3.50523      103.74519        4.85375
H          3.06286      102.35515        3.79066
N          1.25430      102.62509        1.56800
C          0.95513      102.22581        0.19359
C         -0.07467      103.15770       -0.42709
O          0.22260      103.77699       -1.43970
C          0.46885      100.75996        0.15311
C          1.58854       99.77902        0.53700
C          1.10098       98.36088        0.50661
O          1.60434       97.55583       -0.25957
O          0.12253       97.96338        1.34067
H          1.10717      101.94828        2.33182
H          1.88227      102.29369       -0.41926
H          0.13595      100.51097       -0.87922
H         -0.39122      100.63731        0.84426
H          1.97210       99.98876        1.55670
H          2.42778       99.89713       -0.18348
N         -1.29566      103.32965        0.13952
C         -2.28635      104.23760       -0.39426
H         -3.19351      104.22493        0.24775
H         -1.88186      105.27227       -0.41060
H         -2.57155      103.92983       -1.42177
H         -1.52409      102.80937        0.98816
Ca        -0.13874       95.09985       -0.29667
O         -0.64126       95.40889        3.52478
H         -0.33321       95.55412        2.59523
H         -1.27296       96.15194        3.69660
O          1.75947       93.69264        1.99616
H          2.16822       93.68186        2.89722
H          1.94793       92.79323        1.62720

Ca 1.0



