%chk=holoCaM.loop2.water2.frame215.chk
%nprocshared=20
%mem=10GB
%nosave
#b3lyp/svp scf=(tight,noincore,xqc) Test 
#IOP(5/87=12) Density=Current Pop=(MK,readradii) iop(6/33=2) iop(6/42=6)

holoCaM.loop2.water2.frame215 

   -2  1 
C         18.05881       55.38407      114.52387
C         18.14301       54.20041      115.44801
O         18.95479       53.31643      115.21962
H         19.03839       55.90626      114.50038
H         17.79036       55.05285      113.50069
H         17.29298       56.11375      114.86770
N         17.33878       54.13992      116.54046
C         17.39904       53.08777      117.54598
C         17.00799       51.71350      117.01615
O         15.99696       51.58896      116.33918
C         16.46521       53.46339      118.71452
C         16.50321       52.43506      119.79721
O         15.37225       51.81366      120.18178
O         17.56751       52.13619      120.30737
H         16.68118       54.92080      116.69528
H         18.43256       53.04698      117.95857
H         15.41954       53.57541      118.35489
H         16.79638       54.43308      119.14459
N         17.68126       50.61324      117.47006
C         17.21197       49.24487      117.27322
C         17.76202       48.35245      118.38503
O         18.41313       47.35424      118.11075
C         17.57671       48.74723      115.86891
H         18.46097       50.76647      118.12767
H         16.10597       49.22006      117.39206
H         17.12552       49.40206      115.09504
H         18.68018       48.74430      115.73553
H         17.19371       47.71483      115.71763
N         17.51971       48.69363      119.68853
C         18.01603       47.94866      120.85615
C         17.58757       48.50013      122.24040
O         17.80719       47.78700      123.21056
C         19.55832       47.81560      120.82187
C         20.25584       49.11944      120.52626
O         20.05526       50.20963      121.28808
O         21.02325       49.18730      119.58030
H         16.94762       49.53009      119.81759
H         17.57859       46.92647      120.80885
H         19.85439       47.08670      120.03879
H         19.92418       47.39054      121.78171
N         16.97848       49.70804      122.43920
C         16.48892       50.18949      123.72563
C         17.53345       50.50211      124.78617
O         17.12124       50.93787      125.85239
H         16.77935       50.32243      121.65549
H         15.76564       49.45108      124.13381
H         15.93295       51.13745      123.54876
N         18.87420       50.30975      124.61323
C         19.83903       50.56422      125.68860
C         19.98514       52.04780      126.05557
O         20.63173       52.33081      127.05432
C         21.21393       49.92135      125.36403
C         21.88678       50.44405      124.12164
N         23.07923       49.94829      123.72330
O         21.35272       51.30986      123.45913
H         19.21098       49.91107      123.72880
H         19.46530       50.03649      126.59373
H         21.06197       48.82934      125.22593
H         21.90022       50.06931      126.22485
H         23.54882       49.20690      124.26114
H         23.53200       50.30677      122.86978
N         19.44692       53.04371      125.29304
C         19.53101       54.46276      125.61406
C         20.50278       55.22337      124.72730
O         20.54034       56.44075      124.83764
H         18.95550       52.79768      124.43115
H         19.86050       54.62659      126.66296
H         18.51074       54.89471      125.52226
N         21.39194       54.57936      123.91240
C         22.46474       55.24963      123.18648
C         22.48244       54.84079      121.67935
O         22.96077       53.53772      121.51390
C         23.81724       54.94119      123.90104
C         23.87335       55.57447      125.29324
O         24.00136       53.55219      124.03743
H         21.38934       53.56008      123.89329
H         22.30905       56.35162      123.21235
H         24.66886       55.39272      123.34572
H         24.67275       53.26684      123.36502
H         23.07117       55.17700      125.94918
H         24.85371       55.35213      125.76583
H         23.76604       56.67777      125.21499
N         23.29353       55.80038      120.90391
C         23.76602       55.39211      119.56619
C         24.96376       54.43854      119.65450
O         25.94340       54.75433      120.31539
C         24.12078       56.69068      118.77164
C         22.81835       57.50127      118.52123
C         24.83311       56.38079      117.44323
C         23.03079       58.84386      117.81963
H         24.08932       56.20718      121.44392
H         22.95091       54.88561      119.00801
H         24.82593       57.30002      119.38066
H         22.32830       57.71683      119.49454
H         22.11474       56.89439      117.90874
H         25.12527       57.31052      116.91912
H         25.78375       55.84423      117.62893
H         24.18388       55.77742      116.78145
H         23.43457       58.71177      116.79567
H         22.05301       59.36074      117.71972
H         23.71573       59.48464      118.41276
N         24.97112       53.29399      118.90603
C         26.12063       52.39537      118.76811
C         26.80910       52.68080      117.44068
O         26.36212       53.57061      116.74053
C         25.64802       50.92393      118.78642
C         24.94754       50.53995      120.05463
O         23.90645       51.08747      120.37055
O         25.43945       49.55245      120.82626
H         24.16256       53.11351      118.29361
H         26.86154       52.56821      119.57948
H         26.52304       50.25239      118.65876
H         24.95199       50.74654      117.93609
N         27.90965       51.99125      117.01876
C         28.53619       52.25960      115.72381
C         27.57353       51.98356      114.56153
O         27.41553       52.89167      113.75702
C         29.88701       51.52063      115.55935
C         30.51745       51.79294      114.20758
C         30.74319       50.73342      113.31031
C         30.87663       53.09936      113.82405
C         31.31157       50.97595      112.05609
C         31.44444       53.33655      112.56748
C         31.66114       52.27605      111.68442
H         28.31765       51.27069      117.63319
H         28.80154       53.34126      115.69461
H         29.76744       50.43439      115.69390
H         30.58503       51.85538      116.35692
H         30.47440       49.71913      113.57739
H         30.71752       53.93541      114.49250
H         31.47919       50.15498      111.37092
H         31.71600       54.34344      112.27690
H         32.09972       52.46132      110.71212
N         26.88012       50.80613      114.38057
C         25.99011       50.55229      113.24261
C         24.80409       51.50149      113.10120
O         24.06953       51.38269      112.13060
C         25.44607       49.14399      113.50660
C         26.57643       48.50618      114.27665
C         26.97047       49.63305      115.22380
H         26.62218       50.58211      112.32670
H         24.59097       49.20746      114.22090
H         25.10599       48.60255      112.59817
H         26.31933       47.55113      114.78095
H         27.41765       48.33005      113.56731
H         26.23981       49.73879      116.05437
H         27.96936       49.40847      115.62048
N         24.55184       52.45497      114.03568
C         23.45554       53.40618      113.99024
C         24.01399       54.76233      113.59122
O         23.46913       55.37703      112.68580
C         22.75183       53.43079      115.36357
C         22.14406       52.05706      115.70586
C         21.47772       52.02172      117.05189
O         21.44655       53.10599      117.84783
O         20.95886       50.98665      117.43240
H         25.16729       52.52491      114.85005
H         22.69659       53.12271      113.22660
H         21.94324       54.19431      115.35470
H         23.48754       53.70520      116.14590
H         22.94099       51.28244      115.70762
H         21.38974       51.79096      114.93455
N         25.15679       55.24523      114.15662
C         25.81644       56.46655      113.74933
H         26.82013       56.21329      113.34286
H         25.24950       57.01535      112.97116
H         25.95290       57.12434      114.63084
H         25.63090       54.69982      114.87711
Ca        21.29654       52.07935      120.91637
O         19.81453       54.81491      119.65107
H         19.05882       55.45241      119.61539
H         20.54275       55.26792      119.15932
O         19.05759       53.67349      122.10409
H         18.77050       52.74289      122.28165
H         18.25417       54.22235      122.28374

Ca 1.0



