%chk=holoCaM-CaMKII.loop3.water2.frame161.chk
%nprocshared=20
%mem=10GB
%nosave
#b3lyp/svp scf=(tight,noincore,xqc) Test 
#IOP(5/87=12) Density=Current Pop=(MK,readradii) iop(6/33=2) iop(6/42=6)

holoCaM-CaMKII.loop3.water2.frame161 

   0  1 
C         -0.74594       77.27718       29.43329
C         -0.24115       75.92779       29.85089
O         -0.00358       75.72922       31.03314
H         -1.70136       77.49470       29.95456
H          0.00277       78.05204       29.70104
H         -0.92224       77.32224       28.33771
N         -0.04113       74.95014       28.92332
C          0.45985       73.62137       29.24046
C          1.82302       73.46549       28.60119
O          2.02372       72.63127       27.72957
C         -0.59802       72.57834       28.82205
C         -0.19488       71.14421       29.05679
O         -0.19263       70.37332       28.11177
O          0.14545       70.68239       30.28071
H         -0.23783       75.15797       27.93189
H          0.62276       73.51768       30.32395
H         -0.83407       72.71295       27.74331
H         -1.52594       72.77119       29.40066
N          2.82863       74.27268       29.04124
C          4.19792       74.23472       28.54218
C          4.79428       72.85850       28.74524
O          5.26563       72.28137       27.77508
C          5.06086       75.30913       29.24221
C          4.59717       76.73063       28.86940
C          5.45349       77.80400       29.55445
C          5.10728       79.23190       29.09109
N          3.73170       79.61802       29.41343
H          2.60141       74.93854       29.79582
H          4.20508       74.46163       27.45188
H          6.11596       75.19698       28.90728
H          5.02733       75.16592       30.34518
H          3.53806       76.87252       29.16287
H          4.67992       76.85058       27.76692
H          6.52134       77.62371       29.30279
H          5.33801       77.72779       30.65789
H          5.27079       79.31931       27.99386
H          5.80471       79.93661       29.59570
H          3.58861       80.61613       29.13620
H          3.04662       79.03738       28.87998
H          3.56021       79.52518       30.44065
N          4.76816       72.25031       29.96734
C          5.28394       70.89966       30.18698
C          4.67495       69.92080       29.18920
O          5.43646       69.31825       28.44463
C          5.12733       70.44254       31.65835
C          3.71315       70.34325       32.15746
O          3.00277       71.33212       32.20323
O          3.23963       69.16677       32.60795
H          4.34798       72.76553       30.75419
H          6.38187       70.92325       29.99974
H          5.67318       71.15440       32.31500
H          5.61118       69.44722       31.76665
N          3.32357       69.77322       29.05404
C          2.72028       68.97944       27.98928
C          1.85518       67.83405       28.47191
O          1.32854       67.13146       27.62050
H          2.69517       70.30361       29.67286
H          3.49743       68.53650       27.33030
H          2.11184       69.65463       27.35426
N          1.69540       67.53454       29.79336
C          1.00703       66.32093       30.23424
C         -0.48695       66.26818       29.92696
O         -1.05190       65.19590       30.10113
C          1.27441       66.04822       31.73116
C          0.75178       67.09112       32.69086
N          0.97705       66.94161       34.01506
O          0.14019       68.06990       32.29017
H          2.16918       68.11665       30.49611
H          1.47575       65.47569       29.68142
H          2.37453       65.97660       31.87386
H          0.83242       65.06606       32.00658
H          1.49518       66.12490       34.37035
H          0.63718       67.64183       34.68756
N         -1.20148       67.34490       29.48481
C         -2.61441       67.25968       29.13494
C         -3.52725       68.05473       30.04592
O         -4.72655       67.99204       29.82896
H         -0.73543       68.25526       29.38326
H         -2.97311       66.20912       29.17980
H         -2.74708       67.60519       28.08694
N         -3.05660       68.81932       31.07743
C         -3.95482       69.54076       31.98742
C         -3.21387       70.58859       32.80530
O         -1.99629       70.59909       32.81786
C         -4.72023       68.53589       32.88446
C         -3.77722       67.64300       33.66821
C         -3.04538       68.14237       34.75996
C         -3.61360       66.29507       33.29933
C         -2.16538       67.31320       35.46199
C         -2.72423       65.47134       33.99601
C         -1.99639       65.97900       35.08049
O         -1.13198       65.19805       35.75967
H         -2.04264       68.90252       31.20091
H         -4.66929       70.12052       31.36236
H         -5.34330       67.90250       32.21979
H         -5.42803       69.04573       33.57298
H         -3.15821       69.17048       35.07603
H         -4.16010       65.88338       32.46000
H         -1.60884       67.70977       36.30162
H         -2.59962       64.44014       33.69007
H         -0.97496       64.27360       35.51990
N         -3.91809       71.56992       33.44723
C         -3.26266       72.70141       34.10618
C         -3.74483       72.90192       35.53355
O         -4.69325       72.26850       35.96830
C         -3.47050       74.00837       33.27343
C         -4.97375       74.34780       33.08278
C         -2.73937       73.89248       31.92576
C         -5.21684       75.70178       32.41422
H         -4.94495       71.56012       33.38287
H         -2.17112       72.51660       34.17782
H         -2.99310       74.84879       33.82144
H         -5.46716       74.38531       34.07727
H         -5.47392       73.56502       32.47381
H         -1.66709       73.68283       32.10193
H         -3.16991       73.07935       31.30520
H         -2.78172       74.84131       31.35641
H         -4.75367       76.51445       33.01278
H         -4.81493       75.72583       31.38163
H         -6.30997       75.88606       32.34934
N         -3.09528       73.81729       36.31077
C         -3.49050       74.20635       37.65865
C         -3.71289       75.71578       37.70105
O         -3.55934       76.37329       36.68465
C         -2.38402       73.78967       38.64386
O         -1.17958       74.43304       38.33006
H         -2.26352       74.27957       35.91961
H         -4.43055       73.69624       37.95991
H         -2.24614       72.68734       38.57879
H         -2.68528       74.04964       39.68238
H         -0.52133       74.14127       39.01266
N         -4.06045       76.33888       38.86231
C         -4.18625       77.79120       38.97631
C         -2.85746       78.47082       38.69203
O         -2.81510       79.38415       37.87923
C         -4.65219       78.17447       40.38460
H         -4.21886       75.76146       39.70083
H         -4.96058       78.16036       38.26648
H         -3.92508       77.83605       41.15288
H         -4.76473       79.27815       40.45834
H         -5.63894       77.71004       40.59384
N         -1.72371       78.04693       39.32055
C         -0.40304       78.64253       39.13255
C         -0.01934       78.72003       37.66990
O          0.35628       79.79216       37.21626
C          0.65101       77.82785       39.89364
H         -1.80531       77.23872       39.95767
H         -0.40228       79.67319       39.55256
H          1.65479       78.28931       39.77427
H          0.40458       77.80252       40.97626
H          0.69132       76.78355       39.51410
N         -0.11779       77.62651       36.86549
C          0.23027       77.64806       35.44769
C         -0.56810       78.71911       34.72537
O          0.03094       79.60174       34.12611
C         -0.02114       76.27511       34.79317
C          0.85208       75.15980       35.39508
C          0.58155       73.86451       34.69570
O          0.81452       73.77104       33.37592
O          0.14920       72.90430       35.31113
H         -0.48241       76.75880       37.28236
H          1.31377       77.88190       35.34076
H          0.21296       76.35721       33.70890
H         -1.09323       76.00598       34.89423
H          0.64516       75.03610       36.47680
H          1.92648       75.41340       35.27243
N         -1.92712       78.72398       34.76984
C         -2.71874       79.75497       34.13724
H         -3.79762       79.57412       34.33117
H         -2.44813       80.74847       34.55536
H         -2.54418       79.75064       33.04115
H         -2.41747       77.98705       35.28991
Ca         0.28896       71.98320       32.11709
O          2.81076       71.40729       35.28815
H          3.65563       71.85911       35.03859
H          3.08077       70.71614       35.94339
O         -0.04223       70.02867       35.49364
H         -0.92601       70.23550       35.88850
H          0.47534       69.63051       36.23810

Ca 1.0



