%chk=holoCaM.loop2.water2.frame140.chk
%nprocshared=20
%mem=10GB
%nosave
#b3lyp/svp scf=(tight,noincore,xqc) Test 
#IOP(5/87=12) Density=Current Pop=(MK,readradii) iop(6/33=2) iop(6/42=6)

holoCaM.loop2.water2.frame140 

   -2  1 
C         11.13744       75.64159      -15.73139
C         11.12718       74.14995      -15.54808
O         11.46414       73.68148      -14.47151
H         10.44231       76.10638      -14.99973
H         12.15955       76.03911      -15.56896
H         10.80293       75.92843      -16.75165
N         10.70634       73.33927      -16.55566
C         10.56469       71.89512      -16.41509
C         11.92041       71.20574      -16.29657
O         12.75678       71.42144      -17.16341
C          9.81424       71.33605      -17.64327
C          9.31173       69.93983      -17.42110
O          8.74214       69.35172      -18.32542
O          9.40916       69.36099      -16.20920
H         10.40233       73.78147      -17.43762
H          9.93029       71.70471      -15.52159
H         10.47608       71.37574      -18.53652
H          8.91620       71.95619      -17.85141
N         12.18958       70.32742      -15.28276
C         13.46845       69.62845      -15.14889
C         13.35964       68.10646      -15.28717
O         14.40518       67.47178      -15.32319
C         14.09090       69.98340      -13.79335
H         11.45979       70.14585      -14.58196
H         14.16742       69.96321      -15.94530
H         15.08545       69.50225      -13.67567
H         14.22277       71.08309      -13.70916
H         13.43134       69.64218      -12.96509
N         12.16524       67.44075      -15.32699
C         12.07026       65.97302      -15.35741
C         10.97530       65.42115      -16.27491
O         10.90632       64.20609      -16.40375
C         11.86020       65.44628      -13.92390
C         10.77006       66.19542      -13.22536
O          9.52995       66.26520      -13.73517
O         11.03505       66.83765      -12.22094
H         11.30433       67.98035      -15.17900
H         13.02220       65.53492      -15.72942
H         12.79893       65.60672      -13.34985
H         11.64918       64.35551      -13.92476
N         10.07899       66.21083      -16.92728
C          9.03043       65.68587      -17.78568
C          8.07214       64.76660      -17.05509
O          7.93202       63.62505      -17.47032
H         10.13592       67.22582      -16.83744
H          9.49611       65.14653      -18.63927
H          8.44295       66.53283      -18.20272
N          7.34726       65.20873      -15.98613
C          6.32416       64.40231      -15.31566
C          4.92762       65.01746      -15.48041
O          3.98304       64.48368      -14.91493
C          6.69618       64.16164      -13.82986
C          6.66003       65.37370      -12.93687
N          6.95129       65.25851      -11.62152
O          6.35731       66.46271      -13.38685
H          7.50241       66.17237      -15.65776
H          6.27571       63.38917      -15.77116
H          7.71298       63.71346      -13.78510
H          5.98121       63.42437      -13.40432
H          7.20932       64.34818      -11.21470
H          6.91289       66.08434      -11.00680
N          4.71252       66.10450      -16.28443
C          3.39851       66.66483      -16.56629
C          2.92180       67.70824      -15.56955
O          1.85587       68.25978      -15.79815
H          5.49177       66.48326      -16.83679
H          2.65053       65.84976      -16.68216
H          3.45783       67.18465      -17.54666
N          3.63153       68.03095      -14.45007
C          3.19102       69.01355      -13.45841
C          4.29105       70.03393      -13.15688
O          5.38945       69.92481      -13.67829
C          2.78844       68.27422      -12.15110
C          1.60522       67.31688      -12.36344
O          3.88867       67.60380      -11.58286
H          4.49964       67.52837      -14.26240
H          2.29955       69.56843      -13.82404
H          2.43389       69.01388      -11.40398
H          4.02678       66.75588      -12.07908
H          1.86289       66.51410      -13.08592
H          1.32783       66.84576      -11.39666
H          0.72635       67.87716      -12.74763
N          4.05958       71.01770      -12.23910
C          5.08299       71.90300      -11.69261
C          5.39862       71.41815      -10.28984
O          4.49798       71.10782       -9.52357
C          4.64732       73.41140      -11.76484
C          5.16679       74.01333      -13.10169
C          5.16172       74.24058      -10.56389
C          4.82280       75.48788      -13.32852
H          3.12607       71.07374      -11.80712
H          6.04074       71.79930      -12.24530
H          3.53789       73.47336      -11.71085
H          4.75795       73.42434      -13.94977
H          6.27806       73.93132      -13.12783
H          4.76189       73.83083       -9.61179
H          6.26915       74.24931      -10.52275
H          4.78558       75.28217      -10.60094
H          5.28728       76.13905      -12.55909
H          5.23642       75.81213      -14.30709
H          3.72426       75.63592      -13.33171
N          6.70047       71.38005       -9.89131
C          7.15462       70.90214       -8.59452
C          7.59791       72.08923       -7.77456
O          7.51005       73.20430       -8.25797
C          8.35238       69.95399       -8.79111
C          8.10697       68.87857       -9.80174
O          7.79442       69.23195      -11.06256
O          8.31163       67.70808       -9.52492
H          7.42107       71.74535      -10.53018
H          6.33275       70.38002       -8.05912
H          8.66652       69.51083       -7.82150
H          9.20648       70.54544       -9.18922
N          8.06189       71.93677       -6.50466
C          8.46877       73.08565       -5.70941
C          9.74459       73.73232       -6.25869
O          9.70352       74.93907       -6.46862
C          8.51675       72.73651       -4.20850
C          8.65417       73.96885       -3.34317
C          7.69780       75.00395       -3.40895
C          9.72579       74.08826       -2.44501
C          7.82328       76.13657       -2.60330
C          9.84121       75.22101       -1.63279
C          8.89329       76.24501       -1.71429
H          8.06890       70.99742       -6.08188
H          7.64567       73.82614       -5.79217
H          9.31422       72.00476       -3.98854
H          7.55127       72.25670       -3.93569
H          6.85039       74.94376       -4.07943
H         10.46704       73.30312       -2.36786
H          7.08662       76.92766       -2.66677
H         10.66575       75.30422       -0.93802
H          8.98459       77.12122       -1.08642
N         10.89127       73.03883       -6.58450
C         12.08604       73.64742       -7.18042
C         11.87765       74.36267       -8.51569
O         12.83415       74.91821       -9.03575
C         13.01759       72.45499       -7.43964
C         12.62364       71.49951       -6.34350
C         11.10250       71.62180       -6.36130
H         12.50973       74.34838       -6.42699
H         12.72345       71.95536       -8.39398
H         14.09695       72.71268       -7.50046
H         13.00545       70.46333       -6.46374
H         13.00313       71.91708       -5.38298
H         10.65528       71.05772       -7.20729
H         10.72640       71.24693       -5.39575
N         10.66604       74.36805       -9.13482
C         10.38453       74.98646      -10.41857
C          9.56682       76.24389      -10.17925
O          9.92909       77.28898      -10.70102
C          9.64313       73.97289      -11.31722
C         10.44831       72.66732      -11.47985
C          9.75226       71.64349      -12.33090
O          8.57238       71.90873      -12.92206
O         10.25965       70.54427      -12.47609
H          9.87995       73.88197       -8.69989
H         11.32235       75.27913      -10.94229
H          9.45889       74.43080      -12.31401
H          8.66168       73.72743      -10.85948
H         10.60743       72.20859      -10.48087
H         11.44141       72.88815      -11.92543
N          8.49964       76.23317       -9.32929
C          7.73375       77.40643       -8.96850
H          6.65963       77.22107       -9.17490
H          7.85696       77.59585       -7.87946
H          8.05888       78.31142       -9.52036
H          8.23533       75.36290       -8.86001
Ca         8.47352       67.95311      -12.73749
O          6.47899       68.78362      -15.99239
H          5.77514       69.16276      -16.57572
H          7.04717       68.25646      -16.60546
O          6.94907       71.69036      -15.53370
H          6.72917       71.74601      -16.49718
H          7.58312       72.43429      -15.38075

Ca 1.0



