%chk=holoCaM.loop4.water2.frame255.chk
%nprocshared=20
%mem=10GB
%nosave
#b3lyp/svp scf=(tight,noincore,xqc) Test 
#IOP(5/87=12) Density=Current Pop=(MK,readradii) iop(6/33=2) iop(6/42=6)

holoCaM.loop4.water2.frame255 

   -3  1 
C         36.42824       67.87310       81.07511
C         35.21083       68.52067       80.48263
O         35.25387       68.86730       79.31320
H         37.28792       68.57436       81.05502
H         36.24875       67.54116       82.11838
H         36.68368       66.97748       80.46693
N         34.07855       68.71143       81.22180
C         32.82841       69.19578       80.63587
C         31.83125       69.56801       81.71957
O         31.50164       68.73136       82.54847
C         32.26522       68.09874       79.70697
C         30.89810       68.34032       79.10820
O         30.03689       67.49188       79.27403
O         30.59853       69.42083       78.35272
H         34.10010       68.46651       82.22404
H         33.04254       70.10511       80.04588
H         32.21768       67.14967       80.28754
H         32.97498       67.93373       78.87422
N         31.30791       70.83102       81.75276
C         30.37660       71.30614       82.77040
C         28.99696       71.64383       82.19515
O         28.11223       71.92387       82.99290
C         30.99899       72.51932       83.54184
C         31.19031       73.76973       82.63089
C         32.32401       72.08966       84.20144
C         31.78017       74.98724       83.34916
H         31.59709       71.49607       81.02895
H         30.19758       70.49386       83.50830
H         30.29792       72.79900       84.35969
H         30.20026       74.07035       82.22545
H         31.85913       73.54366       81.77784
H         32.16030       71.19852       84.84285
H         33.08977       71.84506       83.43420
H         32.72375       72.88848       84.85836
H         32.82021       74.79025       83.68227
H         31.82221       75.84599       82.64534
H         31.15623       75.27091       84.22184
N         28.73035       71.66348       80.85034
C         27.41595       72.00609       80.29545
C         26.88584       70.98172       79.28234
O         25.81777       71.21583       78.73385
C         27.44238       73.43780       79.71031
C         28.36335       73.67855       78.54723
O         29.06179       72.79133       78.09232
O         28.41409       74.90628       77.99753
H         29.49539       71.48981       80.18717
H         26.65946       72.05155       81.10929
H         27.73284       74.13774       80.52359
H         26.41297       73.70726       79.38837
N         27.53318       69.80936       79.01418
C         27.00293       68.78827       78.11459
C         27.06043       69.11949       76.62998
O         26.60713       68.29156       75.85174
H         28.38628       69.57887       79.53625
H         25.95719       68.55426       78.41018
H         27.59735       67.85856       78.24286
N         27.61377       70.26926       76.14538
C         27.68964       70.58102       74.71386
C         28.60110       69.64603       73.90689
O         28.64961       69.80408       72.69389
C         28.12792       72.05040       74.49630
C         29.49602       72.39839       75.03089
O         30.24239       71.49695       75.69787
O         29.92796       73.52853       74.87476
H         27.96262       70.96279       76.81569
H         26.66179       70.49413       74.29429
H         27.38705       72.71924       74.98524
H         28.11021       72.27070       73.40596
N         29.34401       68.65579       74.48339
C         30.18711       67.74411       73.72324
C         31.46783       68.35687       73.17559
O         32.22446       67.60797       72.57367
H         29.28648       68.49167       75.49626
H         29.59263       67.28573       72.90038
H         30.50355       66.92031       74.39840
N         31.79364       69.67722       73.32937
C         33.02916       70.26612       72.81615
C         33.78742       71.03628       73.90213
O         33.25449       71.96840       74.48656
C         32.74380       71.13358       71.57651
C         31.76018       72.29622       71.78854
C         31.54046       73.09494       70.52576
N         30.69847       74.15186       70.54060
O         32.11746       72.80048       69.48793
H         31.13389       70.30491       73.79592
H         33.69781       69.46359       72.43460
H         32.32352       70.46670       70.79020
H         33.71408       71.53232       71.20488
H         32.14819       72.98893       72.56068
H         30.77872       71.89612       72.12013
H         30.20342       74.41539       71.40499
H         30.54264       74.70743       69.68664
N         35.06573       70.67835       74.20757
C         35.92250       71.34163       75.19586
C         36.28460       72.76626       74.76937
O         36.73979       72.94887       73.64846
C         37.21531       70.48330       75.40004
C         38.26560       71.17155       76.28498
C         36.86052       69.12899       76.04305
H         35.45701       69.86976       73.70138
H         35.40999       71.37774       76.17577
H         37.69180       70.30265       74.41095
H         37.85087       71.39667       77.28630
H         39.15465       70.51726       76.40906
H         38.62190       72.10415       75.80676
H         36.41966       69.29040       77.04868
H         36.13299       68.55674       75.43330
H         37.77095       68.50385       76.15873
N         36.23657       73.79613       75.67660
C         36.77327       75.14008       75.41831
C         38.08046       75.32426       76.18733
O         38.51202       74.37606       76.81582
C         35.74717       76.26575       75.72626
C         35.57727       76.64591       77.18436
N         35.01558       75.81461       78.08532
O         35.93570       77.75701       77.54867
H         35.92554       73.57604       76.63206
H         37.01453       75.23616       74.33745
H         34.76352       76.03287       75.26611
H         36.12444       77.17930       75.21611
H         34.66740       74.88897       77.81382
H         34.90328       76.12184       79.06324
N         38.77943       76.49409       76.19042
C         40.05209       76.66241       76.90233
C         39.93225       76.37669       78.39788
O         40.71666       75.59352       78.91226
C         40.58872       78.10091       76.72867
C         41.89651       78.28822       77.47148
C         43.05795       77.60723       77.06647
C         41.95211       79.12428       78.60009
C         44.25227       77.76145       77.77897
C         43.14392       79.26924       79.31553
C         44.29906       78.58797       78.90683
O         45.45426       78.71642       79.59055
H         38.39974       77.29401       75.66082
H         40.79934       75.96150       76.46566
H         39.82419       78.80411       77.12649
H         40.73544       78.34094       75.65364
H         43.03943       76.95673       76.20114
H         41.06794       79.64928       78.93970
H         45.14130       77.23279       77.45803
H         43.16622       79.90683       80.19036
H         45.52555       79.27080       80.38097
N         38.99792       77.01686       79.15499
C         38.88736       76.88581       80.61102
C         38.80489       75.43030       81.02526
O         39.60085       74.99551       81.84681
C         37.64864       77.65270       81.12878
C         37.77435       79.17335       80.92724
C         36.54423       79.88430       81.41120
O         36.63209       80.78535       82.40791
O         35.46182       79.66327       80.89101
H         38.33146       77.62273       78.65838
H         39.79119       77.32093       81.09391
H         37.53371       77.46473       82.21988
H         36.73872       77.27186       80.61351
H         37.91539       79.43085       79.85808
H         38.65974       79.53919       81.49156
N         37.89315       74.60868       80.45025
C         37.79084       73.17955       80.73474
C         39.11283       72.47669       80.46479
O         39.60332       71.77157       81.33493
C         36.69274       72.56513       79.85686
C         35.29561       73.09180       80.22614
C         34.25109       72.55406       79.29921
O         32.97081       72.91714       79.43867
O         34.54003       71.75537       78.42623
H         37.27627       75.02306       79.73484
H         37.51460       73.01312       81.79996
H         36.68908       71.45829       79.97233
H         36.90950       72.81228       78.79502
H         35.26257       74.19293       80.18358
H         35.04389       72.78624       81.26467
N         39.75661       72.64887       79.28238
C         41.01735       72.02089       78.96241
H         41.78468       72.29942       79.71481
H         40.89326       70.91894       78.93316
H         41.36277       72.36687       77.96324
H         39.34714       73.27499       78.59123
Ca        31.58022       71.43679       78.49649
O         33.15003       69.57310       76.62086
H         32.98725       68.60303       76.51881
H         33.89050       69.62670       77.27264
O         31.96703       74.87378       77.21958
H         32.16156       75.58876       77.87618
H         30.99894       74.70197       77.32523

Ca 1.0



