%chk=holoCaM-CaMKII.loop1.water2.frame202.chk
%nprocshared=20
%mem=10GB
%nosave
#b3lyp/svp scf=(tight,noincore,xqc) Test 
#IOP(5/87=12) Density=Current Pop=(MK,readradii) iop(6/33=2) iop(6/42=6)

holoCaM-CaMKII.loop1.water2.frame202 

   0  1 
C         -0.01752       76.56336       31.81070
C         -0.42527       77.55394       32.85512
O          0.25301       78.56129       33.00017
H          1.00645       76.19720       32.02812
H         -0.71370       75.70002       31.77807
H         -0.02550       77.06197       30.81780
N         -1.55223       77.36117       33.59747
C         -2.01647       78.35848       34.54650
C         -1.07822       78.41195       35.75709
O         -1.09960       77.48805       36.55911
C         -3.47254       78.04477       34.96970
C         -4.09759       79.18814       35.69801
O         -3.41919       80.33828       35.82261
O         -5.22066       79.08338       36.15479
H         -2.13032       76.52529       33.41839
H         -2.02613       79.32954       33.99962
H         -3.49257       77.12777       35.59882
H         -4.10015       77.85577       34.07370
N         -0.17325       79.42539       35.90842
C          0.85580       79.41625       36.95253
C          0.36560       79.94340       38.30183
O          1.05047       79.68871       39.28348
C          2.10360       80.20066       36.46147
C          3.29680       80.27885       37.43969
C          3.87132       78.90891       37.83578
C          5.03844       79.07572       38.82104
N          5.58383       77.77795       39.21817
H         -0.10222       80.11717       35.14992
H          1.17511       78.35966       37.08879
H          1.79614       81.24487       36.23268
H          2.45769       79.73677       35.51425
H          2.99468       80.83685       38.35015
H          4.10059       80.87209       36.95119
H          4.22220       78.37671       36.92512
H          3.09035       78.29473       38.32935
H          4.68021       79.61083       39.72938
H          5.84271       79.68419       38.35112
H          5.95371       77.27169       38.38130
H          6.36569       77.92870       39.89619
H          4.84349       77.20229       39.68162
N         -0.76585       80.69682       38.45000
C         -1.19193       81.23067       39.75134
C         -2.51913       80.62699       40.21823
O         -2.94630       80.94918       41.31691
C         -1.15336       82.78169       39.74846
C         -2.08224       83.38129       38.74542
O         -3.39880       83.14967       38.84122
O         -1.63879       83.97248       37.77370
H         -1.33328       80.92036       37.61880
H         -0.46621       80.93727       40.54029
H         -0.11183       83.09322       39.50668
H         -1.40102       83.18046       40.75464
N         -3.16699       79.66626       39.49249
C         -4.27723       78.88046       40.01100
C         -5.55871       79.64439       40.24247
O         -6.05646       79.63285       41.35997
H         -2.79733       79.37791       38.57669
H         -3.95309       78.38444       40.95257
H         -4.51182       78.07630       39.28001
N         -6.19015       80.26641       39.20943
C         -7.51744       80.87398       39.31196
C         -8.51095       80.25598       38.31565
O         -9.63648       80.72673       38.24386
C         -7.40882       82.40301       39.13254
C         -6.96268       82.86912       37.77544
O         -6.74092       82.07963       36.87232
O         -6.82590       84.18839       37.54987
H         -5.71159       80.28459       38.29896
H         -7.93724       80.71883       40.33029
H         -6.69507       82.79198       39.89075
H         -8.40138       82.86082       39.33386
N         -8.16873       79.19627       37.52245
C         -9.04607       78.60162       36.52471
C         -9.31561       79.54387       35.37115
O        -10.46981       79.74374       35.03203
H         -7.24614       78.75752       37.62801
H         -9.98981       78.25074       36.99688
H         -8.53217       77.71257       36.09756
N         -8.27287       80.10622       34.69713
C         -8.34658       81.00382       33.53567
C         -6.92767       81.26213       33.02481
O         -6.06243       81.63611       33.80869
C         -9.02281       82.38737       33.79217
C        -10.55847       82.41240       33.85135
O         -8.47364       83.03410       34.90580
H         -7.33399       79.83980       35.02842
H         -8.91237       80.50685       32.71660
H         -8.80099       83.00637       32.89312
H         -8.88509       82.62174       35.70936
H        -10.90173       83.46883       33.85325
H        -10.98673       81.91207       32.95633
H        -10.96332       81.96331       34.77320
N         -6.63658       81.11770       31.70186
C         -5.30577       81.28578       31.12328
C         -5.28128       82.57015       30.30769
O         -6.16937       82.77228       29.48757
C         -4.95140       80.03804       30.25842
C         -5.02521       78.74788       31.11918
C         -3.55221       80.19552       29.62549
C         -4.84427       77.45574       30.31919
H         -7.40699       80.88660       31.05354
H         -4.53524       81.36614       31.92183
H         -5.70218       79.95849       29.44022
H         -6.02681       78.67799       31.59466
H         -4.26191       78.79149       31.92445
H         -3.50233       81.10662       28.99518
H         -2.77207       80.26485       30.41411
H         -3.31307       79.34500       28.95711
H         -5.61447       77.38847       29.52127
H         -3.83533       77.38853       29.86678
H         -4.96445       76.58471       30.99781
N         -4.26587       83.47147       30.46263
C         -4.18855       84.74737       29.75185
C         -3.11173       84.71011       28.68191
O         -2.41186       83.71296       28.56841
C         -3.92645       85.91144       30.74681
C         -5.03135       86.04532       31.80273
O         -2.66250       85.78284       31.35615
H         -3.48682       83.22152       31.08870
H         -5.14693       84.94091       29.22069
H         -3.91870       86.86872       30.18418
H         -2.73024       85.11638       32.08731
H         -5.09787       85.12433       32.41800
H         -4.80478       86.90336       32.47192
H         -6.01117       86.22423       31.31362
N         -2.95620       85.75222       27.81577
C         -1.98687       85.73961       26.71900
C         -0.53804       85.85158       27.18587
O          0.33848       85.72445       26.34310
C         -2.26091       86.87928       25.70774
C         -3.63173       86.74031       25.03812
O         -2.16372       88.12232       26.35595
H         -3.60385       86.55146       27.90204
H         -2.10019       84.77485       26.17256
H         -1.49218       86.80957       24.90088
H         -1.95268       88.79609       25.65833
H         -3.69975       85.76518       24.51013
H         -4.45534       86.80878       25.77733
H         -3.76258       87.55139       24.29117
N         -0.19934       86.08320       28.48772
C          1.18641       86.17694       28.93622
C          1.59393       84.85748       29.55319
O          2.64842       84.34751       29.19710
C          1.38438       87.38527       29.87506
C          2.87953       87.60955       30.17495
C          3.13013       88.88025       30.99686
C          4.63928       89.10492       31.19101
N          4.90199       90.32886       31.94697
H         -0.93764       86.16437       29.19872
H          1.85637       86.35440       28.06470
H          0.80847       87.25079       30.81706
H          1.00061       88.29096       29.35513
H          3.41890       87.71585       29.20747
H          3.29293       86.73151       30.71705
H          2.63119       88.79184       31.98630
H          2.70561       89.75538       30.45748
H          5.13226       89.18403       30.19563
H          5.08093       88.23756       31.73022
H          4.47276       90.26407       32.89813
H          5.93578       90.45134       32.04907
H          4.51473       91.15655       31.43797
N          0.75254       84.18715       30.39214
C          1.02167       82.83642       30.87961
C          1.29711       81.91658       29.69886
O          2.36658       81.32575       29.64988
C         -0.16473       82.30021       31.71908
C         -0.37841       83.12252       33.00362
C         -1.51647       82.59783       33.83088
O         -2.64533       82.54577       33.37283
O         -1.30451       82.23081       35.10660
H         -0.14753       84.62694       30.63022
H          1.92584       82.85188       31.52858
H          0.04730       81.24809       32.01029
H         -1.09311       82.30999       31.10509
H         -0.60028       84.17938       32.75887
H          0.55159       83.09598       33.61145
N          0.39875       81.80313       28.68122
C          0.63382       81.02647       27.48057
H          1.61888       80.51502       27.49106
H         -0.16418       80.26428       27.36895
H          0.60683       81.70385       26.59952
H         -0.48414       82.32156       28.73758
Ca        -4.03419       82.09975       37.01113
O         -5.78598       84.92844       34.95745
H         -5.64000       85.90262       35.05299
H         -6.73168       84.85371       34.67927
O         -2.82458       85.34643       35.22598
H         -3.14332       86.13409       34.71798
H         -1.90752       85.58927       35.50800

Ca 1.0



