%chk=holoCaM.loop3.water2.frame156.chk
%nprocshared=20
%mem=10GB
%nosave
#b3lyp/svp scf=(tight,noincore,xqc) Test 
#IOP(5/87=12) Density=Current Pop=(MK,readradii) iop(6/33=2) iop(6/42=6)

holoCaM.loop3.water2.frame156 

   0  1 
C          3.65227       97.29909       -0.74019
C          3.73200       96.56844        0.56375
O          4.80511       96.51749        1.14947
H          4.64533       97.71780       -1.01315
H          3.33003       96.59899       -1.53870
H          2.92287       98.13070       -0.65765
N          2.62328       95.97051        1.08794
C          2.66547       95.24017        2.34768
C          3.61021       94.06622        2.19382
O          3.37343       93.21400        1.34749
C          1.25707       94.77100        2.76861
C          1.22298       94.16854        4.15239
O          2.33614       94.06638        4.90500
O          0.16259       93.78623        4.61236
H          1.73063       96.04777        0.57578
H          3.02642       95.94207        3.13297
H          0.86449       94.04054        2.02830
H          0.57453       95.64659        2.77676
N          4.74297       94.00106        2.94392
C          5.75534       92.97188        2.75492
C          5.18613       91.60502        3.08667
O          5.06716       90.78072        2.19052
C          7.00399       93.34714        3.57907
C          8.20987       92.43275        3.34832
C          9.44759       93.04539        4.02072
C         10.70491       92.20565        3.78033
N         11.88182       92.86836        4.34359
H          4.91701       94.75421        3.62804
H          6.05675       92.98962        1.68254
H          6.76862       93.39302        4.66489
H          7.29186       94.37254        3.25427
H          8.40454       92.35617        2.25642
H          8.00195       91.41757        3.75137
H          9.27445       93.15032        5.11465
H          9.61706       94.05815        3.59118
H         10.85737       92.07016        2.68649
H         10.57782       91.20443        4.24779
H         11.76298       93.00735        5.37330
H         12.72537       92.27514        4.17345
H         12.02563       93.79552        3.87965
N          4.79372       91.30167        4.35486
C          4.18086       90.02058        4.70646
C          2.75844       89.85516        4.12203
O          2.22493       88.75767        4.20689
C          4.20436       89.78640        6.23397
C          3.35051       90.76938        6.96017
O          2.20921       90.34226        7.49465
O          3.60360       91.96325        6.96196
H          4.98147       91.99882        5.08494
H          4.82356       89.21937        4.27762
H          5.24008       89.82874        6.63220
H          3.80934       88.76389        6.42650
N          2.11151       90.87098        3.46979
C          0.89069       90.69253        2.68850
C         -0.42094       90.46584        3.42777
O         -1.39420       90.21214        2.73121
H          2.56757       91.78640        3.39629
H          1.05802       89.84090        1.99226
H          0.73626       91.59301        2.05667
N         -0.56677       90.52478        4.78602
C         -1.84105       90.16258        5.43057
C         -3.01987       91.08631        5.10198
O         -4.13548       90.73321        5.46230
C         -1.68823       89.96244        6.96722
C         -2.00492       91.15909        7.90077
N         -1.58023       90.86732        9.26591
O         -1.45097       92.36913        7.50065
H          0.26188       90.72362        5.35722
H         -2.07266       89.14971        5.02787
H         -0.68676       89.52575        7.17613
H         -2.42785       89.19302        7.27848
H         -2.09957       90.03513        9.62259
H         -1.81413       91.68528        9.87334
N         -2.85728       92.29006        4.47063
C         -3.94972       93.21364        4.17797
C         -3.87058       94.51215        4.97792
O         -4.74951       95.34308        4.81845
H         -1.91394       92.59049        4.19819
H         -4.93218       92.75206        4.41895
H         -3.94593       93.43819        3.09012
N         -2.89517       94.71535        5.91151
C         -2.86248       95.82555        6.86030
C         -1.46473       96.41483        6.96348
O         -0.52601       95.67699        7.22330
C         -3.24334       95.27597        8.25127
C         -4.71505       94.97756        8.36761
C         -5.18885       93.66057        8.48449
C         -5.62959       96.04307        8.39690
C         -6.56023       93.41814        8.62774
C         -6.99468       95.80001        8.55293
C         -7.46576       94.48546        8.67010
O         -8.78149       94.23872        8.83011
H         -2.18884       93.99058        6.04052
H         -3.58272       96.62773        6.59185
H         -3.00307       96.01323        9.04895
H         -2.64032       94.36870        8.45487
H         -4.50210       92.82377        8.46302
H         -5.28052       97.06572        8.32113
H         -6.91928       92.40051        8.71535
H         -7.68254       96.63536        8.58992
H         -9.43433       94.95179        8.88326
N         -1.27618       97.76458        6.85642
C          0.00913       98.41833        7.09373
C         -0.13184       99.34734        8.29472
O         -0.83937      100.34108        8.21527
C          0.47001       99.16654        5.80816
C          0.78869       98.12516        4.70260
C          1.68743      100.07473        6.07518
C          1.12842       98.74474        3.34677
H         -2.08739       98.36505        6.64781
H          0.78987       97.66700        7.34528
H         -0.36378       99.82305        5.47265
H         -0.09474       97.46982        4.54841
H          1.63803       97.48305        5.02834
H          1.95844      100.65580        5.17262
H          1.45797      100.83049        6.85336
H          2.56129       99.47751        6.39466
H          1.31172       97.93935        2.60856
H          0.28134       99.36573        2.98868
H          2.04989       99.35784        3.39417
N          0.51751       99.05214        9.45887
C          0.47858       99.89710       10.65219
C          1.35708      101.13559       10.48490
O          1.97679      101.30154        9.44440
C          0.94301       99.07359       11.87319
O          2.26767       98.64835       11.70630
H          1.03212       98.16052        9.50933
H         -0.57277      100.19893       10.85575
H          0.26641       98.19286       11.96919
H          0.86428       99.66792       12.80799
H          2.40188       97.88851       12.33001
N          1.48668      102.03182       11.50675
C          2.38743      103.18369       11.47269
C          3.82444      102.74284       11.26820
O          4.49330      103.28629       10.40167
C          2.29142      103.97372       12.78335
H          0.93983      101.87135       12.36615
H          2.08882      103.87199       10.65025
H          1.25277      104.33681       12.93241
H          2.57893      103.34250       13.65142
H          2.96655      104.85636       12.74569
N          4.35616      101.74424       12.02856
C          5.71516      101.23843       11.86109
C          5.94034      100.71877       10.45099
O          6.88134      101.15394        9.80177
C          5.98493      100.11325       12.87017
H          3.75410      101.30937       12.74527
H          6.44072      102.05568       12.07260
H          7.02606       99.74042       12.76168
H          5.85738      100.49376       13.90604
H          5.28429       99.26392       12.71839
N          5.10497       99.78443        9.91357
C          5.28985       99.20532        8.58159
C          5.20615      100.23724        7.46164
O          5.58041       99.90674        6.34433
C          4.22453       98.11905        8.31495
C          4.34302       96.91404        9.25772
C          3.19831       95.96568        9.04857
O          2.36594       95.69097       10.07035
O          3.01209       95.44473        7.96014
H          4.31641       99.46635       10.49194
H          6.30336       98.74653        8.54528
H          4.31535       97.74386        7.27090
H          3.22261       98.58582        8.43524
H          4.32629       97.24127       10.31695
H          5.30398       96.38849        9.07187
N          4.70312      101.48548        7.66061
C          4.62915      102.46978        6.60420
H          5.65076      102.71387        6.24419
H          4.01917      102.08228        5.76175
H          4.15543      103.39881        6.98783
H          4.33760      101.74780        8.57946
Ca         0.70406       91.93893        7.46234
O         -0.55971       94.36488        9.94852
H          0.32808       94.15937        9.56303
H         -0.37045       94.71001       10.85630
O          1.74252       91.83312       10.28087
H          2.07637       90.92216       10.08455
H          2.48534       92.27027       10.76727

Ca 1.0



