%chk=holoCaM-CaMKII.loop3.water2.frame485.chk
%nprocshared=20
%mem=10GB
%nosave
#b3lyp/svp scf=(tight,noincore,xqc) Test 
#IOP(5/87=12) Density=Current Pop=(MK,readradii) iop(6/33=2) iop(6/42=6)

holoCaM-CaMKII.loop3.water2.frame485 

   0  1 
C         81.29664       83.81337       74.85126
C         81.84873       83.28686       73.56582
O         82.77415       83.88496       73.03565
H         80.21241       84.01804       74.74452
H         81.45992       83.05903       75.64903
H         81.81735       84.75234       75.14012
N         81.32385       82.16297       72.99760
C         81.87838       81.56551       71.79261
C         80.92630       81.78867       70.64081
O         79.80139       81.30824       70.68636
C         82.13211       80.07166       72.03146
C         83.04257       79.45627       71.01697
O         83.31521       78.27509       71.12076
O         83.64519       80.18711       70.05872
H         80.50426       81.71657       73.43804
H         82.85128       82.05106       71.56845
H         81.16594       79.52269       72.07300
H         82.62606       79.93135       73.01057
N         81.29405       82.58782       69.60295
C         80.36593       82.98393       68.55756
C         80.02616       81.81606       67.65003
O         78.85603       81.48417       67.52302
C         80.94491       84.15878       67.73917
C         79.83036       84.88931       66.97050
C         80.32828       86.02302       66.06264
C         81.17662       87.08207       66.78582
N         81.50477       88.18362       65.88139
H         82.23008       83.01457       69.62151
H         79.45213       83.37119       69.06430
H         81.75454       83.80750       67.06303
H         81.38058       84.89423       68.44875
H         79.12011       85.31408       67.71576
H         79.27118       84.17083       66.33405
H         79.42827       86.51361       65.63053
H         80.92418       85.59140       65.23057
H         82.12254       86.61993       67.14377
H         80.62326       87.48302       67.66351
H         82.12628       88.86284       66.37674
H         82.00291       87.82243       65.03544
H         80.62929       88.67661       65.59026
N         81.01396       81.15124       66.97929
C         80.74743       80.06638       66.03699
C         80.72544       78.69754       66.69797
O         80.42400       77.73109       66.01064
C         81.71905       80.12916       64.83531
C         83.17383       79.89697       65.15979
O         83.58593       79.63184       66.41438
O         83.99618       79.94269       64.25954
H         81.99070       81.43712       67.14259
H         79.73117       80.21409       65.60862
H         81.62234       81.12938       64.36006
H         81.41527       79.36546       64.08636
N         80.99013       78.53045       68.02499
C         80.86979       77.24780       68.69180
C         81.82599       76.21490       68.14503
O         81.36890       75.17290       67.69708
H         81.24129       79.34092       68.60836
H         79.82130       76.88720       68.59634
H         81.07820       77.37837       69.77564
N         83.17304       76.41639       68.20207
C         84.15449       75.40083       67.82720
C         84.91248       74.86844       69.04175
O         85.71674       73.96516       68.86145
C         85.10909       75.87996       66.70271
C         85.90376       77.17431       66.93827
N         86.97498       77.30561       65.95758
O         86.42888       77.27320       68.22166
H         83.50735       77.30404       68.59278
H         83.63538       74.50835       67.41584
H         84.51642       76.04171       65.77661
H         85.82387       75.05415       66.49672
H         86.55937       77.37121       65.00180
H         87.49470       78.19139       66.14505
N         84.67929       75.32733       70.30706
C         85.28512       74.75110       71.49659
C         86.15837       75.72047       72.26048
O         86.61552       75.33610       73.32932
H         84.00323       76.08063       70.46403
H         85.90352       73.86073       71.25656
H         84.45967       74.41383       72.16091
N         86.47207       76.96566       71.79334
C         87.38498       77.85528       72.50953
C         87.02379       79.31987       72.33485
O         86.12812       79.63367       71.56366
C         88.84317       77.51637       72.12923
C         89.15792       77.63757       70.65183
C         89.20164       78.88980       70.01335
C         89.44643       76.48183       69.90218
C         89.53419       78.98036       68.65711
C         89.77142       76.57586       68.54616
C         89.82189       77.82772       67.92019
O         90.14904       77.93541       66.61626
H         86.13579       77.25252       70.86319
H         87.27540       77.67116       73.60224
H         89.01173       76.46418       72.44746
H         89.55911       78.13748       72.70734
H         88.99954       79.79928       70.56215
H         89.42165       75.50352       70.36565
H         89.57779       79.94828       68.17800
H         89.99065       75.67574       67.98548
H         90.35726       77.16258       66.07180
N         87.66635       80.27677       73.06652
C         87.32605       81.69772       73.02165
C         88.53602       82.49384       72.56082
O         89.63935       82.19131       72.99826
C         86.88490       82.21882       74.42561
C         85.93534       81.26816       75.19845
C         86.26277       83.62745       74.30287
C         84.61408       80.95709       74.51063
H         88.41253       79.98148       73.71598
H         86.47633       81.86666       72.32304
H         87.78875       82.29543       75.07018
H         85.71238       81.71929       76.19044
H         86.45932       80.30724       75.38802
H         86.98286       84.34839       73.86936
H         85.36791       83.61089       73.64542
H         85.96320       84.01288       75.29932
H         84.01959       80.27391       75.15396
H         84.02449       81.87558       74.34810
H         84.79229       80.45572       73.54367
N         88.39562       83.57495       71.74281
C         89.51649       84.41091       71.31788
C         89.39539       85.83690       71.84024
O         88.40556       86.17996       72.47118
C         89.59385       84.40463       69.78584
O         88.41418       84.93373       69.24429
H         87.45000       83.82769       71.42503
H         90.47304       84.00541       71.71307
H         89.72911       83.35701       69.44572
H         90.46588       85.00375       69.44525
H         88.56292       85.01209       68.26701
N         90.40723       86.72258       71.60847
C         90.39124       88.12552       72.01583
C         89.27964       88.88398       71.32067
O         88.61092       89.67549       71.96914
C         91.73186       88.78813       71.68672
H         91.24213       86.37629       71.11063
H         90.26393       88.19810       73.11994
H         92.55041       88.26080       72.22214
H         91.93459       88.75701       70.59534
H         91.72529       89.84731       72.02434
N         89.01996       88.67991       69.99693
C         87.91177       89.31729       69.29232
C         86.58723       88.94151       69.93545
O         85.84161       89.82909       70.32597
C         87.90874       88.89689       67.81619
H         89.61700       88.01604       69.47939
H         88.04296       90.42220       69.32289
H         87.07639       89.39781       67.27688
H         88.86511       89.19558       67.33649
H         87.79157       87.79695       67.71102
N         86.24514       87.63038       70.09839
C         84.99506       87.18990       70.72173
C         84.88805       87.60165       72.19089
O         83.81911       87.43301       72.76111
C         84.87127       85.65325       70.64222
C         84.78859       85.12694       69.19827
C         84.79558       83.62303       69.13688
O         84.67672       83.06478       68.05829
O         84.94533       82.87942       70.25070
H         86.90983       86.92162       69.75995
H         84.14790       87.65221       70.16780
H         83.95382       85.31881       71.17234
H         85.74850       85.21862       71.16100
H         85.64461       85.48402       68.59088
H         83.85053       85.50640       68.74045
N         85.94620       88.12359       72.87231
C         85.89903       88.55520       74.25288
H         86.17476       89.63032       74.30457
H         84.89472       88.42641       74.70471
H         86.63709       87.97282       74.84364
H         86.84827       88.21193       72.40563
Ca        85.18943       79.04868       68.89477
O         86.73881       80.75282       65.98758
H         87.65529       80.90031       65.64313
H         86.33771       80.11328       65.34996
O         87.74158       82.18846       68.20768
H         88.61148       82.07976       67.74833
H         87.28456       82.89295       67.68426

Ca 1.0



