%chk=holoCaM.loop4.water3.frame410.chk
%nprocshared=20
%mem=10GB
%nosave
#b3lyp/svp scf=(tight,noincore,xqc) Test 
#IOP(5/87=12) Density=Current Pop=(MK,readradii) iop(6/33=2) iop(6/42=6)

holoCaM.loop4.water3.frame410 

   -3  1 
C         68.32894       67.99207       41.00192
C         67.12963       68.25398       41.86072
O         66.03773       68.32650       41.31837
H         69.25698       67.92914       41.60626
H         68.18841       67.02814       40.46749
H         68.43668       68.80667       40.25560
N         67.25230       68.41566       43.21090
C         66.10691       68.62941       44.09036
C         66.57710       68.98435       45.49899
O         67.28162       68.20055       46.12007
C         65.20735       67.37396       44.09887
C         63.99923       67.55210       44.96200
O         63.78023       66.76596       45.86894
O         63.14491       68.56721       44.72930
H         68.19848       68.39453       43.62199
H         65.51807       69.48581       43.69191
H         65.79065       66.49277       44.44497
H         64.84148       67.15716       43.07642
N         66.21487       70.17890       46.04928
C         66.63758       70.66545       47.36148
C         65.44212       70.88087       48.29823
O         65.61844       71.50986       49.33174
C         67.48390       71.97389       47.19798
C         66.69980       73.11824       46.49729
C         68.79709       71.65467       46.45827
C         67.43122       74.46340       46.50507
H         65.60293       70.79424       45.49782
H         67.29444       69.92890       47.87497
H         67.76237       72.31799       48.21910
H         65.73253       73.27330       47.02096
H         66.49107       72.85047       45.44249
H         69.46951       72.53498       46.42792
H         69.34776       70.85051       46.99138
H         68.59687       71.32048       45.41818
H         68.38468       74.41698       45.94192
H         66.79441       75.23099       46.01567
H         67.63298       74.78510       47.54857
N         64.21308       70.33895       48.03811
C         63.03834       70.59387       48.88762
C         61.84833       69.60690       48.72324
O         60.89487       69.75421       49.47726
C         62.55130       72.04826       48.66691
C         62.16388       72.28609       47.23235
O         62.46022       71.35819       46.30240
O         61.56832       73.30235       46.91470
H         64.13139       69.74954       47.20793
H         63.34622       70.47066       49.94961
H         63.32548       72.79155       48.95188
H         61.66640       72.22254       49.31765
N         61.83706       68.55667       47.84916
C         60.82505       67.50295       47.83954
C         59.43039       67.84291       47.32954
O         58.60324       66.94246       47.36579
H         62.63752       68.39335       47.24316
H         60.74162       67.09533       48.87058
H         61.19191       66.67672       47.19175
N         59.06598       69.06406       46.84456
C         57.68871       69.35049       46.41016
C         57.19558       68.48846       45.24098
O         56.01019       68.18839       45.21746
C         57.46434       70.85796       46.12996
C         58.36146       71.44822       45.08149
O         59.23553       70.66877       44.43260
O         58.36074       72.65203       44.88868
H         59.76759       69.81862       46.82844
H         57.01823       69.12733       47.27114
H         57.67504       71.40351       47.07547
H         56.40324       71.04267       45.85520
N         58.01679       68.08782       44.22659
C         57.57201       67.30241       43.07680
C         57.73415       68.03674       41.75009
O         57.50962       67.42040       40.71825
H         59.01155       68.33795       44.26467
H         56.50609       67.00240       43.16638
H         58.17977       66.37285       43.04912
N         58.09463       69.35085       41.69596
C         58.27917       70.13316       40.47638
C         59.71308       70.64724       40.41420
O         60.48661       70.33349       41.31040
C         57.27891       71.30746       40.48138
C         55.82397       70.81372       40.51099
C         54.85877       71.97043       40.49479
N         53.98184       72.15579       41.50939
O         54.86239       72.74567       39.54999
H         58.22909       69.85665       42.57028
H         58.10061       69.51230       39.57081
H         57.42227       71.92254       39.56801
H         57.46810       71.95080       41.37031
H         55.65804       70.20111       41.42345
H         55.62895       70.17393       39.62350
H         53.95743       71.51311       42.31451
H         53.32081       72.94645       41.48984
N         60.15012       71.42976       39.37867
C         61.53797       71.87428       39.26118
C         61.61473       73.39666       39.32116
O         61.14235       74.06154       38.40886
C         62.16716       71.32701       37.94609
C         63.66256       71.66444       37.85674
C         61.99486       69.80442       37.82783
H         59.49108       71.69571       38.63135
H         62.13360       71.46437       40.10440
H         61.64789       71.78934       37.07678
H         63.81716       72.75855       37.88459
H         64.21815       71.19601       38.69693
H         64.08861       71.29085       36.90147
H         62.43980       69.44363       36.87537
H         62.48763       69.28382       38.67606
H         60.91888       69.53111       37.81261
N         62.20655       74.01264       40.38618
C         62.39979       75.46029       40.49595
C         63.47238       75.91981       39.51615
O         64.07028       75.09310       38.85419
C         62.83292       75.78863       41.95345
C         62.92230       77.24766       42.32130
N         61.83994       78.05375       42.22821
O         63.97461       77.69948       42.74510
H         62.52164       73.42135       41.16594
H         61.43069       75.96353       40.28805
H         63.80346       75.28798       42.16542
H         62.07936       75.37378       42.63566
H         60.93704       77.69039       41.89218
H         61.90389       79.04473       42.50286
N         63.78013       77.23468       39.38393
C         64.90936       77.73556       38.59860
C         66.24889       77.27219       39.18222
O         67.06247       76.77024       38.41803
C         64.78800       79.26808       38.37432
C         64.43557       80.08238       39.59954
C         63.11881       80.56333       39.74240
C         65.37250       80.35727       40.60316
C         62.74007       81.27357       40.87986
C         64.99196       81.07722       41.74321
C         63.67085       81.52809       41.88800
O         63.28326       82.20246       42.98863
H         63.18372       77.90489       39.88016
H         64.85489       77.31981       37.56543
H         63.93862       79.37355       37.66255
H         65.67393       79.68390       37.84736
H         62.37204       80.36458       38.98286
H         66.39322       80.01543       40.50282
H         61.71724       81.61491       40.98024
H         65.72074       81.27914       42.51704
H         63.88914       82.38683       43.71967
N         66.53360       77.34158       40.51993
C         67.80162       76.86740       41.10006
C         68.00825       75.35235       40.97438
O         69.05967       74.87296       41.37689
C         67.92051       77.22402       42.60339
C         67.82884       78.72803       42.88155
C         68.13673       79.02628       44.32044
O         67.38628       78.48969       45.30164
O         69.06946       79.75994       44.60714
H         65.82548       77.74924       41.13975
H         68.63359       77.38007       40.56795
H         68.91986       76.88109       42.95641
H         67.14170       76.68738       43.19082
H         66.80739       79.08885       42.66638
H         68.55084       79.27022       42.23244
N         67.06266       74.53929       40.43263
C         67.17780       73.09343       40.30910
C         67.41459       72.74048       38.84989
O         68.34517       71.99851       38.56759
C         65.90094       72.43991       40.88162
C         65.74782       72.75006       42.38589
C         64.47220       72.22906       42.98752
O         64.19283       72.49840       44.27477
O         63.67293       71.58963       42.32689
H         66.19152       74.94946       40.08907
H         68.04423       72.69681       40.88538
H         65.94311       71.33731       40.74081
H         65.01574       72.83206       40.33449
H         65.75049       73.84894       42.53841
H         66.60630       72.31396       42.94137
N         66.66413       73.29286       37.85827
C         66.91054       73.04756       36.45584
H         67.94997       73.34261       36.19682
H         66.75016       71.97566       36.22278
H         66.21333       73.65852       35.84139
H         65.91893       73.94990       38.09305
Ca        61.37592       71.16298       44.39516
O         61.03635       67.38667       43.16782
H         61.12335       66.88680       44.01783
H         60.74068       66.71254       42.50715
O         62.95773       68.85871       41.72747
H         63.04054       67.92252       41.41906
H         63.71127       69.32708       41.29289
O         60.79845       73.61344       43.52944
H         60.03755       74.23406       43.63632
H         61.40995       73.83551       44.27754

Ca 1.0



