%chk=holoCaM-CaMKII.loop3.water2.frame488.chk
%nprocshared=20
%mem=10GB
%nosave
#b3lyp/svp scf=(tight,noincore,xqc) Test 
#IOP(5/87=12) Density=Current Pop=(MK,readradii) iop(6/33=2) iop(6/42=6)

holoCaM-CaMKII.loop3.water2.frame488 

   0  1 
C         80.13560       92.17722       83.93527
C         80.50552       92.26514       82.48576
O         80.91272       93.32809       82.03774
H         79.06824       91.88817       84.03252
H         80.76932       91.41356       84.43279
H         80.28991       93.15450       84.44096
N         80.36272       91.17522       81.68132
C         80.68554       91.17933       80.26157
C         79.38515       91.26349       79.50095
O         78.64780       90.29053       79.42411
C         81.56767       89.95983       79.93170
C         81.78405       89.66543       78.47074
O         82.26426       90.57147       77.59405
O         81.55207       88.53737       78.07347
H         79.94776       90.32042       82.08486
H         81.26820       92.08877       80.01613
H         81.10852       89.05193       80.38438
H         82.55312       90.09962       80.41779
N         78.98128       92.48707       79.05133
C         77.65164       92.74445       78.51793
C         77.50047       92.25872       77.07997
O         76.37527       92.17468       76.60992
C         77.36161       94.26366       78.60224
C         75.87417       94.61702       78.52532
C         75.68164       96.14074       78.55707
C         74.21342       96.55514       78.74392
N         73.33267       96.00922       77.71094
H         79.59480       93.29150       79.24541
H         76.93610       92.22110       79.19114
H         77.93259       94.79475       77.81200
H         77.71098       94.63919       79.59130
H         75.36934       94.15601       79.40248
H         75.42351       94.22111       77.59480
H         76.08722       96.57482       77.61613
H         76.25052       96.57530       79.40883
H         74.16264       97.66650       78.72268
H         73.86038       96.21606       79.74307
H         72.37098       96.39395       77.85205
H         73.67425       96.27729       76.76020
H         73.27520       94.96886       77.79418
N         78.59087       91.99248       76.29839
C         78.50065       91.60094       74.89198
C         79.13305       90.23958       74.62214
O         79.17619       89.84290       73.46505
C         79.08696       92.70281       73.97269
C         80.55019       93.01969       74.12885
O         81.30151       92.44691       75.08347
O         81.06551       93.82392       73.36957
H         79.53011       92.10906       76.70190
H         77.43666       91.50862       74.58296
H         78.51672       93.64403       74.13115
H         78.92386       92.38921       72.91817
N         79.58730       89.43476       75.62790
C         80.11536       88.10019       75.38543
C         81.50476       88.07343       74.77096
O         81.98568       86.97701       74.52077
H         79.47825       89.72794       76.60838
H         79.40079       87.54035       74.74240
H         80.16852       87.54901       76.34477
N         82.21222       89.20642       74.48059
C         83.49910       89.16420       73.79052
C         84.65027       88.60435       74.62358
O         85.70554       88.39348       74.04241
C         83.84905       90.53581       73.16319
C         84.12248       91.67445       74.11513
N         84.40053       92.90054       73.61360
O         84.09467       91.50798       75.32442
H         81.78643       90.11999       74.66380
H         83.36803       88.48272       72.92035
H         83.00000       90.83477       72.50985
H         84.74551       90.41436       72.51783
H         84.42588       93.05675       72.59484
H         84.59048       93.69662       74.23800
N         84.55273       88.34500       75.96315
C         85.63073       87.70463       76.71113
C         86.39207       88.63185       77.63817
O         87.32954       88.15006       78.26112
H         83.68955       88.57738       76.47221
H         86.38108       87.26830       76.01998
H         85.20581       86.85431       77.29003
N         86.07753       89.94980       77.80124
C         86.81553       90.81600       78.72691
C         85.97486       91.98705       79.21338
O         84.83819       92.11519       78.79163
C         88.17312       91.27576       78.13675
C         88.06969       92.24971       76.98052
C         88.47444       93.58695       77.15725
C         87.60532       91.84114       75.71844
C         88.41164       94.49611       76.09794
C         87.55535       92.75183       74.65525
C         87.95684       94.08305       74.84306
O         87.91298       94.97130       73.82910
H         85.25469       90.31997       77.30633
H         87.02402       90.22745       79.64832
H         88.78847       90.40387       77.82914
H         88.73610       91.76356       78.95951
H         88.83584       93.93173       78.11814
H         87.30024       90.81721       75.54845
H         88.72132       95.52262       76.25268
H         87.20814       92.42182       73.68444
H         87.61237       94.72840       72.94191
N         86.45574       92.86486       80.14112
C         85.65229       93.93585       80.72425
C         86.23559       95.28215       80.34469
O         87.42490       95.49155       80.54698
C         85.60904       93.81651       82.27909
C         85.29674       92.38926       82.79475
C         84.61717       94.84376       82.86893
C         83.95582       91.82394       82.34981
H         87.42395       92.75780       80.47983
H         84.60227       93.87940       80.35887
H         86.62032       94.05282       82.67911
H         85.31791       92.40064       83.90704
H         86.09552       91.69528       82.45824
H         84.59196       94.77594       83.97609
H         84.92047       95.87593       82.60853
H         83.58954       94.68585       82.47653
H         83.13992       92.45888       82.72788
H         83.90592       91.76071       81.24702
H         83.82262       90.80518       82.77058
N         85.42816       96.27575       79.87757
C         85.89765       97.63266       79.61707
C         85.33289       98.58480       80.65642
O         84.57307       98.15833       81.51089
C         85.50248       98.06147       78.19366
O         84.10742       98.10557       78.04722
H         84.41841       96.08700       79.78388
H         87.00467       97.68460       79.69934
H         85.95828       97.37599       77.44337
H         85.90179       99.07190       77.96881
H         83.82190       97.21158       77.72703
N         85.69098       99.89745       80.66260
C         85.16256      100.86445       81.62055
C         83.66626      101.04514       81.43825
O         82.93641      100.96440       82.41667
C         85.86732      102.21330       81.45872
H         86.37548      100.21934       79.96098
H         85.37793      100.52058       82.65849
H         86.95780      102.08573       81.63167
H         85.70905      102.63023       80.44251
H         85.48175      102.93364       82.21258
N         83.13967      101.27285       80.19722
C         81.71202      101.48348       79.94260
C         80.81882      100.30548       80.32708
O         79.60736      100.45009       80.23456
C         81.49004      101.79367       78.45705
H         83.79349      101.32007       79.40020
H         81.39066      102.36693       80.53712
H         82.09240      102.67595       78.15556
H         81.79166      100.92183       77.83566
H         80.42017      102.01964       78.25968
N         81.32592       99.12959       80.78732
C         80.51223       98.00748       81.22633
C         80.55825       97.93692       82.74196
O         79.50116       97.88283       83.35477
C         80.98555       96.71084       80.54562
C         80.87440       96.82853       79.01477
C         81.20617       95.53139       78.34951
O         82.39016       94.93468       78.55351
O         80.38891       94.99264       77.62295
H         82.34001       99.01103       80.85780
H         79.44436       98.14562       80.94236
H         80.34154       95.87371       80.89531
H         82.03866       96.48471       80.82778
H         81.56331       97.61351       78.64370
H         79.83532       97.11408       78.73741
N         81.73859       98.03166       83.41836
C         81.83436       98.10249       84.86193
H         82.25457       99.09197       85.14714
H         80.84897       97.99115       85.35978
H         82.51522       97.30783       85.22801
H         82.61653       98.12031       82.89707
Ca        82.43972       92.78926       77.91379
O         82.60319       96.08601       75.56459
H         82.16634       95.40423       74.99851
H         83.33360       96.44399       75.00125
O         85.05258       94.79302       76.71818
H         85.52348       93.92345       76.73863
H         85.45147       95.27430       75.95006

Ca 1.0



