%chk=holoCaM.loop1.water2.frame470.chk
%nprocshared=20
%mem=10GB
%nosave
#b3lyp/svp scf=(tight,noincore,xqc) Test 
#IOP(5/87=12) Density=Current Pop=(MK,readradii) iop(6/33=2) iop(6/42=6)

holoCaM.loop1.water2.frame470 

   0  1 
C         12.25294       84.04646       51.84000
C         11.38103       85.26120       51.72462
O         10.28844       85.15768       51.18591
H         13.21226       84.28369       52.34759
H         11.72671       83.26803       52.43066
H         12.47820       83.65329       50.82737
N         11.79947       86.45504       52.22628
C         10.99343       87.66694       52.17088
C         10.77993       88.08038       50.71948
O         11.74395       88.41120       50.04247
C         11.71169       88.76744       52.97130
C         10.96823       90.05172       53.10425
O         11.56465       91.05744       53.75824
O          9.84997       90.20147       52.64428
H         12.72006       86.49091       52.69221
H         10.01921       87.45392       52.66831
H         12.69149       88.98392       52.49386
H         11.89836       88.39681       54.00311
N          9.53831       88.01351       50.16233
C          9.29605       88.20886       48.73681
C          9.18865       89.69298       48.40712
O         10.02235       90.19595       47.66751
C          8.05505       87.37801       48.32278
C          7.84892       87.21743       46.80903
C          6.71747       86.19877       46.54926
C          6.54522       85.81596       45.07051
N          6.07296       86.93075       44.25166
H          8.77689       87.64702       50.74690
H         10.15039       87.75610       48.18282
H          7.13172       87.77874       48.78683
H          8.22108       86.35385       48.72588
H          8.78643       86.81657       46.36603
H          7.62030       88.20059       46.34709
H          5.75477       86.57623       46.95872
H          6.96974       85.25669       47.08536
H          5.79771       84.99267       45.01170
H          7.50708       85.42709       44.66824
H          5.94563       86.59407       43.26958
H          5.15167       87.27124       44.61100
H          6.76898       87.70881       44.24826
N          8.17058       90.45220       48.91224
C          7.98240       91.87600       48.59973
C          9.00816       92.80007       49.25782
O          9.00090       93.98391       48.94968
C          6.54600       92.31771       48.97842
C          6.23070       92.17858       50.44951
O          7.20501       91.85214       51.32277
O          5.08254       92.31502       50.83624
H          7.46139       89.97295       49.48487
H          8.06788       91.98979       47.49570
H          5.85033       91.65654       48.41515
H          6.35300       93.36296       48.65357
N          9.90583       92.34667       50.17698
C         10.91994       93.18660       50.79051
C         10.37176       94.30147       51.66029
O         10.69843       95.45064       51.39805
H          9.90700       91.35214       50.43492
H         11.56804       93.61001       49.99217
H         11.56367       92.55475       51.43859
N          9.60683       94.03216       52.76109
C          9.23962       95.05534       53.75070
C          9.88406       94.79617       55.11784
O          9.79605       95.66251       55.97630
C          7.70805       95.22155       53.86468
C          6.94655       94.01451       54.34864
O          7.50924       92.96657       54.61471
O          5.61152       94.09981       54.49458
H          9.33327       93.05284       52.92587
H          9.63698       96.04103       53.42329
H          7.30657       95.50726       52.86961
H          7.49721       96.05639       54.56913
N         10.56495       93.64400       55.38079
C         11.30140       93.36745       56.60241
C         10.78017       92.16043       57.35806
O         11.43922       91.76872       58.31190
H         10.60063       92.91709       54.66976
H         11.30674       94.23712       57.29293
H         12.35428       93.16496       56.30776
N          9.59678       91.55045       57.04714
C          9.04437       90.43291       57.81474
C          8.67074       89.26348       56.91098
O          8.77663       89.38002       55.69607
C          7.81786       90.91483       58.63230
C          8.19632       92.00470       59.64908
O          6.78147       91.35555       57.79071
H          9.02674       91.92944       56.28037
H          9.79899       90.05406       58.53890
H          7.42439       90.06349       59.22660
H          7.02632       92.24919       57.43427
H          8.58639       92.91111       59.13871
H          7.30302       92.29411       60.24145
H          8.97478       91.62526       60.34465
N          8.23644       88.08655       57.45557
C          7.85392       86.91438       56.67163
C          6.40818       86.54583       56.99382
O          6.11791       86.15721       58.11772
C          8.84033       85.74006       56.95980
C         10.26929       86.13522       56.49425
C          8.38420       84.43984       56.27176
C         11.34482       85.09356       56.81100
H          8.19171       88.00517       58.48353
H          7.91810       87.14077       55.58433
H          8.85235       85.55293       58.05720
H         10.57339       87.07413       57.00326
H         10.26794       86.32275       55.39711
H          7.37212       84.14304       56.61122
H          8.37817       84.56421       55.17198
H          9.04714       83.59384       56.53824
H         11.16700       84.14200       56.27099
H         12.33342       85.47715       56.48130
H         11.38376       84.90052       57.90366
N          5.44528       86.66264       56.03506
C          4.03717       86.30811       56.23083
C          3.85247       84.79066       56.23745
O          4.81498       84.07470       56.01015
C          3.16952       86.93392       55.10275
C          3.26053       88.46323       55.10033
O          3.58552       86.44909       53.85393
H          5.72662       87.05734       55.12927
H          3.68838       86.73222       57.19897
H          2.10642       86.65349       55.27973
H          2.86552       86.65599       53.20299
H          4.29595       88.79686       54.88424
H          2.59794       88.87425       54.31051
H          2.94022       88.87489       56.07932
N          2.62917       84.22599       56.47982
C          2.39913       82.77642       56.41544
C          2.41067       82.23479       54.98008
O          2.39296       81.02174       54.82264
C          1.08916       82.37541       57.13821
C          1.19245       82.65077       58.64609
O         -0.00066       83.06614       56.58270
H          1.84688       84.84652       56.73676
H          3.22837       82.26978       56.95899
H          0.93935       81.27775       57.01104
H         -0.82332       82.66164       56.96491
H          2.04037       82.07428       59.07673
H          1.35245       83.72923       58.85118
H          0.26382       82.32281       59.15897
N          2.46918       83.05475       53.89150
C          2.72160       82.57479       52.53403
C          4.22002       82.49055       52.33927
O          4.72980       81.44037       51.97479
C          2.12653       83.54779       51.49055
C          0.59896       83.44710       51.38748
C          0.06307       84.47318       50.37672
C         -1.42390       84.24864       50.07264
N         -1.92414       85.26195       49.14257
H          2.50496       84.07083       54.04249
H          2.28917       81.56305       52.36227
H          2.53017       83.28889       50.48567
H          2.43650       84.59064       51.72127
H          0.11854       83.61790       52.37519
H          0.35033       82.41898       51.04176
H          0.62268       84.38655       49.41949
H          0.21910       85.49542       50.78728
H         -2.01889       84.28545       51.01119
H         -1.54892       83.24092       49.61551
H         -2.92037       85.05034       48.90594
H         -1.87536       86.20781       49.58637
H         -1.36089       85.25826       48.26090
N          4.98730       83.58219       52.59748
C          6.43860       83.63372       52.46108
C          7.14304       82.65562       53.39256
O          8.33821       82.45703       53.22073
C          6.90637       85.08606       52.73955
C          6.36528       86.02484       51.64467
C          6.45962       87.49494       51.92675
O          6.12086       88.26771       51.04637
O          6.83489       88.00796       53.11315
H          4.49892       84.42698       52.91291
H          6.70302       83.35277       51.41635
H          8.01523       85.16876       52.75834
H          6.52213       85.37607       53.73931
H          5.29141       85.84438       51.44339
H          6.92382       85.79378       50.71345
N          6.48696       82.00818       54.39827
C          7.13934       81.04538       55.25584
H          8.01707       81.50339       55.75527
H          6.42862       80.69668       56.03574
H          7.46512       80.17071       54.65490
H          5.49474       82.19854       54.58278
Ca         7.09096       90.23786       52.89243
O          3.99744       90.10895       52.33915
H          3.06157       90.27333       52.06269
H          4.24884       90.91904       52.84906
O          4.85316       91.19081       55.71106
H          5.74170       91.07289       55.29066
H          4.35906       91.78235       55.09122

Ca 1.0



