%chk=holoCaM.loop3.water2.frame414.chk
%nprocshared=20
%mem=10GB
%nosave
#b3lyp/svp scf=(tight,noincore,xqc) Test 
#IOP(5/87=12) Density=Current Pop=(MK,readradii) iop(6/33=2) iop(6/42=6)

holoCaM.loop3.water2.frame414 

   0  1 
C         75.83100       72.21303       47.04672
C         74.84264       71.52505       47.93410
O         74.10564       70.68074       47.44560
H         76.52754       71.46309       46.61810
H         75.28656       72.72176       46.22404
H         76.41716       72.97025       47.60760
N         74.77493       71.82152       49.26231
C         73.80876       71.18624       50.14326
C         72.41552       71.64098       49.74762
O         72.08718       72.80328       49.94647
C         74.13597       71.53227       51.60735
C         73.22789       70.85396       52.57772
O         73.13499       69.63992       52.60734
O         72.53366       71.59350       53.44784
H         75.44234       72.50368       49.65482
H         73.91154       70.08359       50.02492
H         74.08287       72.63300       51.75943
H         75.17323       71.21372       51.83195
N         71.57529       70.79250       49.09307
C         70.26975       71.21574       48.60153
C         69.31605       71.32423       49.77076
O         68.74988       72.38436       49.99746
C         69.71865       70.24354       47.52471
C         70.68393       69.98226       46.34340
C         71.15749       71.24851       45.61007
C         72.16200       70.89097       44.50317
N         72.68097       72.09398       43.85293
H         71.90965       69.84143       48.87986
H         70.36422       72.20530       48.10241
H         68.76771       70.66449       47.12857
H         69.48834       69.25628       47.97893
H         70.17360       69.31102       45.61808
H         71.57591       69.43991       46.71831
H         71.67703       71.92004       46.32402
H         70.28598       71.78505       45.17547
H         71.67535       70.23761       43.74569
H         73.01504       70.33151       44.94816
H         73.38289       71.81569       43.12938
H         71.90386       72.61903       43.39111
H         73.15345       72.70729       44.55681
N         69.11716       70.24006       50.57380
C         68.21353       70.22175       51.72222
C         68.58728       71.19806       52.84549
O         67.80038       71.32323       53.77390
C         68.06266       68.77921       52.26299
C         69.31823       68.19750       52.85853
O         70.33024       68.05802       52.18998
O         69.30537       67.77152       54.13339
H         69.60616       69.37187       50.31472
H         67.21046       70.52272       51.34638
H         67.72734       68.11837       51.43408
H         67.26824       68.76711       53.04024
N         69.72644       71.95225       52.82443
C         70.01387       72.99656       53.80206
C         70.31113       72.52968       55.22081
O         70.50300       73.39901       56.05966
H         70.38658       71.85669       52.04273
H         69.15259       73.69921       53.82410
H         70.89669       73.57808       53.45758
N         70.35669       71.21408       55.58986
C         70.52419       70.80931       56.99045
C         71.88697       71.15165       57.59007
O         72.00923       71.12059       58.80675
C         70.21466       69.30863       57.17816
C         71.26444       68.38601       56.59497
N         71.85218       67.44340       57.36778
O         71.58016       68.47758       55.41876
H         70.17997       70.49264       54.87850
H         69.74770       71.36665       57.56125
H         69.23315       69.09392       56.70402
H         70.10984       69.09785       58.26460
H         71.59678       67.33333       58.35967
H         72.55634       66.80720       56.96858
N         72.96452       71.42667       56.80415
C         74.28393       71.75934       57.31243
C         75.31989       70.71288       56.96174
O         76.49234       70.98884       57.17408
H         72.86525       71.38269       55.78565
H         74.29464       71.89294       58.41589
H         74.58104       72.72793       56.85510
N         74.97894       69.47604       56.48252
C         75.96585       68.45265       56.16053
C         75.69984       67.94072       54.71545
O         74.56633       67.11457       54.81453
C         75.90750       67.26834       57.17940
C         75.98754       67.65418       58.63980
C         74.91450       68.31848       59.26572
C         77.10587       67.29613       59.40989
C         74.96474       68.62448       60.62764
C         77.15629       67.60807       60.77274
C         76.08405       68.27230       61.38617
O         76.11438       68.56870       62.70113
H         73.98623       69.22810       56.37763
H         76.98743       68.88654       56.21555
H         76.73825       66.57599       56.92094
H         74.96726       66.68581       57.08687
H         74.02496       68.58316       58.71168
H         77.93802       66.77150       58.95816
H         74.12688       69.12722       61.09537
H         78.02560       67.32548       61.35238
H         76.86637       68.33607       63.26409
N         76.85800       67.17438       54.20331
C         76.69872       66.60931       52.83968
C         77.26643       65.20262       52.82902
O         78.44161       65.01535       53.11097
C         77.26883       67.48018       51.66291
C         78.81395       67.65529       51.66898
C         76.54037       68.82949       51.59689
C         79.35776       68.34567       50.41418
H         77.73486       67.73776       54.27158
H         75.62692       66.50438       52.61464
H         77.01214       66.93339       50.72669
H         79.29819       66.66116       51.67525
H         79.14759       68.21804       52.56451
H         75.44434       68.66359       51.54683
H         76.77826       69.44939       52.48572
H         76.81341       69.39264       50.68114
H         79.05164       67.78709       49.50291
H         79.01167       69.39527       50.33940
H         80.46769       68.36113       50.45604
N         76.45386       64.14527       52.55751
C         76.91489       62.76173       52.58989
C         77.84094       62.42854       51.42418
O         78.06438       63.25880       50.55574
C         75.69384       61.82255       52.57502
O         74.97614       61.97488       51.37891
H         75.45414       64.32922       52.37776
H         77.45044       62.59140       53.54951
H         75.05741       62.07912       53.45466
H         76.00043       60.76172       52.68170
H         74.01249       61.89868       51.60073
N         78.37634       61.17586       51.33931
C         79.14897       60.68341       50.20141
C         78.31769       60.73520       48.93598
O         78.83160       61.14387       47.90362
C         79.57975       59.23320       50.45255
H         78.18425       60.51899       52.10980
H         80.07593       61.28584       50.07194
H         80.21394       59.18005       51.36292
H         78.69441       58.57639       50.59408
H         80.17279       58.85395       49.59238
N         77.00819       60.35684       48.95566
C         76.12694       60.43131       47.79703
C         76.04896       61.84970       47.25074
O         76.34003       62.04080       46.07891
C         74.72371       59.93393       48.16972
H         76.61468       60.01961       49.84899
H         76.51800       59.75684       47.00209
H         74.27858       60.55881       48.97326
H         74.05574       59.96149       47.28286
H         74.77907       58.88474       48.53214
N         75.67129       62.89659       48.04369
C         75.56673       64.26976       47.54353
C         76.89756       64.84072       47.06886
O         76.88019       65.88697       46.43291
C         75.02971       65.21954       48.62987
C         73.57891       64.93669       49.03847
C         73.19388       65.90291       50.11319
O         73.26989       67.10767       49.92496
O         72.86567       65.44375       51.32683
H         75.43782       62.70195       49.02601
H         74.86510       64.26930       46.68002
H         75.06367       66.26449       48.24707
H         75.69781       65.15688       49.52059
H         73.48002       63.90140       49.42930
H         72.90228       65.06069       48.16783
N         78.08788       64.25519       47.36431
C         79.34834       64.80876       46.92422
H         80.18612       64.17982       47.29315
H         79.38217       64.83472       45.81447
H         79.47107       65.83712       47.32608
H         78.11249       63.40964       47.94030
Ca        73.28320       66.86690       52.98176
O         72.72308       64.74287       55.12970
H         73.43550       64.59254       55.80074
H         72.41898       63.83480       54.87999
O         70.38562       64.97298       52.92433
H         70.51907       63.99945       52.80410
H         69.52351       65.16318       52.47628

Ca 1.0



