%chk=holoCaM.loop3.water1.frame86.chk
%nprocshared=20
%mem=10GB
%nosave
#b3lyp/svp scf=(tight,noincore,xqc) Test 
#IOP(5/87=12) Density=Current Pop=(MK,readradii) iop(6/33=2) iop(6/42=6)

holoCaM.loop3.water1.frame86 

   0  1 
C         16.68834        7.43375      111.84041
C         16.27674        6.07089      111.37398
O         16.66091        5.08329      111.98294
H         17.24531        7.95507      111.03573
H         15.77938        8.02151      112.09432
H         17.32692        7.36488      112.74623
N         15.43603        5.94847      110.31352
C         14.89559        4.66480      109.89219
C         15.96402        3.84795      109.16611
O         16.48463        4.30840      108.15927
C         13.65938        4.90645      109.01684
C         12.79512        3.69121      108.93425
O         13.27049        2.55012      108.42764
O         11.63583        3.74219      109.31008
H         15.09507        6.81340      109.86377
H         14.52831        4.14546      110.80752
H         13.95778        5.25660      108.00458
H         13.03685        5.70363      109.48098
N         16.36849        2.64293      109.65482
C         17.48086        1.86709      109.09556
C         17.23639        1.32326      107.68595
O         18.20034        0.87802      107.07793
C         17.86522        0.72475      110.07532
C         18.36789        1.26295      111.43797
C         19.77607        1.88382      111.33243
C         20.25171        2.54939      112.63371
N         19.53059        3.79625      112.90491
H         15.91878        2.31480      110.51832
H         18.34251        2.55466      108.99243
H         18.65080        0.06453      109.64740
H         16.95799        0.10111      110.24149
H         18.42797        0.42142      112.16243
H         17.63675        1.98588      111.84586
H         19.84200        2.64690      110.53349
H         20.47804        1.06131      111.07352
H         21.32973        2.79652      112.51429
H         20.15273        1.84811      113.49105
H         18.51837        3.61510      113.07806
H         19.93411        4.24748      113.75688
H         19.64082        4.45643      112.09966
N         16.00545        1.31131      107.09874
C         15.76776        0.85770      105.72585
C         14.74808        1.73567      104.97284
O         14.41402        1.40238      103.84438
C         15.42910       -0.64784      105.72450
C         14.14441       -0.98920      106.40521
O         14.13729       -1.76973      107.50222
O         13.09354       -0.60561      105.93185
H         15.19978        1.55246      107.67701
H         16.71416        0.92181      105.14402
H         16.25809       -1.18666      106.23326
H         15.38097       -1.02326      104.67874
N         14.26482        2.90175      105.50162
C         13.38192        3.83205      104.80617
C         11.91877        3.42553      104.67660
O         11.15843        4.25683      104.19954
H         14.62355        3.22883      106.40616
H         13.80485        4.07596      103.80671
H         13.37232        4.77763      105.39252
N         11.42827        2.20691      105.05409
C         10.01469        1.84551      104.88801
C          9.05793        2.54888      105.87311
O          7.85781        2.34439      105.76181
C          9.81131        0.29879      104.85109
C          9.76364       -0.51655      106.16061
N         10.62829       -1.68341      106.23516
O          9.72025        0.21414      107.33998
H         12.09181        1.49551      105.36658
H          9.73538        2.16467      103.85925
H         10.54194       -0.15129      104.14381
H          8.81194        0.12284      104.40160
H         10.41014       -2.29690      105.41785
H         10.35766       -2.22369      107.08806
N          9.50822        3.38631      106.85391
C          8.65484        4.07448      107.82149
C          7.97980        3.13772      108.81372
O          6.80851        3.31788      109.11276
H         10.51659        3.57551      106.92598
H          7.91704        4.73225      107.31146
H          9.30993        4.74058      108.42496
N          8.69219        2.12963      109.38386
C          8.21653        1.21354      110.42336
C          9.37038        0.90709      111.35792
O         10.43933        0.56862      110.86585
C          7.80316       -0.15269      109.83815
C          6.47225       -0.18700      109.13707
C          6.38388       -0.18966      107.73747
C          5.29795       -0.31722      109.89791
C          5.14404       -0.32204      107.10744
C          4.06004       -0.46368      109.26756
C          3.98000       -0.47127      107.86790
O          2.79590       -0.63476      107.24508
H          9.65264        1.99939      109.04232
H          7.34927        1.62472      110.98653
H          7.71380       -0.89192      110.66751
H          8.59982       -0.58025      109.20828
H          7.26673       -0.10128      107.12909
H          5.34580       -0.33924      110.98018
H          5.09202       -0.32856      106.02613
H          3.16779       -0.58753      109.86806
H          1.97324       -0.77527      107.73512
N          9.20596        0.89394      112.71039
C         10.26133        0.43672      113.60964
C          9.83659       -0.83808      114.32520
O          8.92746       -0.81140      115.14154
C         10.73270        1.55707      114.58474
C          9.57804        2.15264      115.43867
C         11.45933        2.65270      113.78125
C         10.04595        3.15854      116.48922
H          8.28797        1.14687      113.10545
H         11.16219        0.15882      113.02899
H         11.48456        1.10049      115.26768
H          9.06805        1.35142      116.00333
H          8.82948        2.64680      114.78368
H         11.92064        3.40486      114.45077
H         12.28952        2.20958      113.19170
H         10.76182        3.16177      113.08336
H         10.77804        2.68239      117.17503
H         10.49806        4.05566      116.02292
H          9.17103        3.49602      117.08423
N         10.47745       -2.01591      114.06305
C         10.25220       -3.22736      114.84803
C         10.82656       -3.03805      116.24969
O         11.38567       -1.98739      116.52600
C         10.91000       -4.44107      114.15530
O         12.29122       -4.25260      114.02630
H         11.17825       -2.04247      113.30668
H          9.16119       -3.43701      114.90228
H         10.46519       -4.56657      113.14389
H         10.70668       -5.36241      114.74561
H         12.67461       -5.13089      113.76859
N         10.75567       -4.02035      117.18801
C         11.40059       -3.89941      118.49444
C         12.90444       -3.75265      118.32626
O         13.48119       -2.81463      118.85692
C         11.10180       -5.12883      119.35622
H         10.25376       -4.89149      116.95619
H         10.99362       -3.01452      119.03483
H         11.58558       -5.01871      120.35098
H         10.00592       -5.22129      119.51013
H         11.47683       -6.05668      118.87501
N         13.58896       -4.64304      117.55423
C         15.02811       -4.59038      117.31131
C         15.46135       -3.23948      116.77107
O         16.39594       -2.65607      117.30234
C         15.41658       -5.68843      116.30837
H         13.04513       -5.38833      117.09162
H         15.57341       -4.79074      118.25977
H         15.13618       -6.68664      116.70767
H         14.89374       -5.54115      115.33784
H         16.51216       -5.68029      116.12608
N         14.81526       -2.68623      115.71133
C         15.19804       -1.42856      115.07870
C         15.18872       -0.28382      116.08074
O         16.23118        0.32138      116.28722
C         14.26422       -1.18271      113.87497
C         14.65533        0.01090      112.99583
C         13.80803        0.06574      111.74722
O         12.89268       -0.88685      111.48367
O         13.96432        0.96924      110.94619
H         14.01492       -3.20483      115.32861
H         16.23060       -1.54726      114.68009
H         13.21564       -1.05791      114.22386
H         14.31477       -2.09542      113.24015
H         15.71744       -0.08688      112.68426
H         14.53458        0.95216      113.57337
N         14.05668        0.04381      116.76249
C         13.99406        1.08111      117.77329
H         13.24340        1.84262      117.47737
H         13.68262        0.62978      118.73979
H         14.97057        1.58630      117.92657
H         13.19508       -0.47681      116.57408
Ca        11.73087        1.11976      107.73664
O         10.90328       -2.00377      109.69761
H         11.55790       -2.71124      109.47347
H         10.12918       -2.48803      110.08007

Ca 1.0



