%chk=holoCaM-CaMKII.loop3.water2.frame296.chk
%nprocshared=20
%mem=10GB
%nosave
#b3lyp/svp scf=(tight,noincore,xqc) Test 
#IOP(5/87=12) Density=Current Pop=(MK,readradii) iop(6/33=2) iop(6/42=6)

holoCaM-CaMKII.loop3.water2.frame296 

   0  1 
C         41.96445       37.70134       87.02426
C         41.38626       39.00623       87.49520
O         41.93788       40.05100       87.18279
H         42.98671       37.57116       87.43661
H         41.34448       36.84005       87.35568
H         42.00899       37.69087       85.91610
N         40.27959       39.01032       88.28430
C         39.64026       40.20731       88.81086
C         39.95119       40.26889       90.30501
O         39.80393       39.27124       90.99720
C         38.14789       40.16563       88.41751
C         37.34913       41.28260       89.01402
O         37.70841       42.57171       88.88220
O         36.38312       41.01381       89.70624
H         39.87775       38.10218       88.56720
H         40.06322       41.12552       88.34488
H         37.69924       39.20205       88.74538
H         38.07714       40.21971       87.31062
N         40.49683       41.40721       90.83157
C         41.15241       41.49976       92.14376
C         40.28019       41.06575       93.32146
O         40.81970       40.73155       94.36647
C         41.65349       42.95285       92.33873
C         42.68061       43.16099       93.45639
C         43.04000       44.65360       93.55544
C         44.16944       44.89973       94.56152
N         44.45131       46.33019       94.68839
H         40.53773       42.23439       90.21624
H         42.02289       40.80954       92.09098
H         40.76996       43.60113       92.50951
H         42.15179       43.28809       91.40159
H         43.58910       42.56967       93.20837
H         42.28301       42.82320       94.43542
H         42.13356       45.22010       93.86532
H         43.36939       45.03267       92.56223
H         45.08644       44.37315       94.21359
H         43.88441       44.49417       95.55673
H         43.61022       46.82765       95.06195
H         45.24592       46.46572       95.35421
H         44.71468       46.73438       93.76014
N         38.92631       41.07475       93.22593
C         38.00351       40.65362       94.27990
C         37.10457       39.52553       93.76961
O         36.98377       38.52382       94.46147
C         37.19969       41.86356       94.86426
C         36.87306       42.94560       93.86635
O         37.30235       44.07547       94.02852
O         36.38318       42.58776       92.67971
H         38.52219       41.42053       92.34726
H         38.54318       40.23086       95.15827
H         37.83967       42.34967       95.63423
H         36.29232       41.49601       95.39071
N         36.44926       39.61014       92.57648
C         35.52145       38.61202       92.06902
C         34.11856       39.17771       91.90280
O         33.23947       38.42147       91.51509
H         36.60863       40.42029       91.98017
H         35.45227       37.74493       92.76008
H         35.89164       38.23689       91.08985
N         33.81478       40.47553       92.21549
C         32.45526       41.00570       92.22748
C         31.73970       41.00650       90.87587
O         30.54192       41.25353       90.87721
C         32.41561       42.42415       92.85993
C         33.14636       43.50884       92.09643
N         33.04943       44.79538       92.50293
O         33.81940       43.24122       91.11455
H         34.55578       41.09192       92.55772
H         31.87209       40.34021       92.90095
H         32.84246       42.38431       93.88651
H         31.35171       42.72800       92.94865
H         32.48495       45.04586       93.32754
H         33.52053       45.54720       91.97965
N         32.37797       40.76269       89.69468
C         31.68695       40.70481       88.40926
C         32.10774       41.81055       87.46202
O         31.75414       41.73880       86.29307
H         33.39655       40.60929       89.68694
H         30.58183       40.76056       88.51735
H         31.92462       39.72148       87.95158
N         32.81039       42.89068       87.90036
C         33.25311       43.99246       87.05623
C         34.73853       44.21018       87.21068
O         35.31259       43.82982       88.22215
C         32.50625       45.27522       87.46484
C         31.12435       45.28766       86.87196
C         30.97613       45.64452       85.52129
C         29.98916       44.95675       87.62683
C         29.71311       45.67843       84.93214
C         28.72249       44.97544       87.02860
C         28.58199       45.34063       85.67921
O         27.37010       45.37021       85.08973
H         33.02121       42.96487       88.90056
H         33.06719       43.77427       85.98008
H         33.02317       46.18986       87.09748
H         32.48814       45.34896       88.57558
H         31.84353       45.91035       84.92835
H         30.08500       44.67086       88.66692
H         29.61651       45.96721       83.89294
H         27.85157       44.70713       87.61255
H         26.55973       45.13953       85.56473
N         35.42820       44.81498       86.20524
C         36.85918       45.07481       86.24119
C         37.08087       46.54894       85.95696
O         36.61686       47.01762       84.92405
C         37.59946       44.21192       85.17126
C         37.22795       42.71270       85.30114
C         39.12480       44.40960       85.31256
C         37.83622       41.83291       84.20564
H         34.91469       45.07750       85.34799
H         37.28265       44.80372       87.23455
H         37.27954       44.54748       84.15941
H         36.12655       42.60160       85.21223
H         37.53681       42.32897       86.29249
H         39.39288       45.47348       85.18800
H         39.47047       44.07027       86.31422
H         39.68967       43.86042       84.53557
H         38.94228       41.80650       84.26526
H         37.47302       40.79095       84.32598
H         37.52858       42.20143       83.20359
N         37.84707       47.32204       86.77604
C         38.22317       48.68935       86.42874
C         39.63777       48.68675       85.88558
O         40.28597       47.65511       85.93117
C         38.05066       49.63086       87.63080
O         38.89944       49.26073       88.68684
H         38.29395       46.88184       87.59213
H         37.57613       49.06474       85.60607
H         36.98473       49.63804       87.95998
H         38.29344       50.67424       87.33887
H         38.36539       48.70356       89.31095
N         40.16818       49.78298       85.28271
C         41.48554       49.75699       84.64946
C         42.59100       49.47431       85.64874
O         43.50462       48.73003       85.32155
C         41.76381       51.06371       83.91069
H         39.59625       50.64045       85.22498
H         41.49422       48.95722       83.87308
H         42.74153       50.99530       83.38551
H         40.97522       51.23041       83.14510
H         41.78190       51.92226       84.61253
N         42.54487       49.99935       86.90543
C         43.54996       49.72416       87.92792
C         43.69686       48.23376       88.15481
O         44.80726       47.72335       88.10364
C         43.15188       50.39679       89.24961
H         41.73868       50.59299       87.15561
H         44.52896       50.14682       87.61167
H         43.06174       51.49408       89.10758
H         42.17712       50.00753       89.61748
H         43.92409       50.20497       90.02537
N         42.59541       47.47631       88.39900
C         42.63566       46.04227       88.66420
C         43.26514       45.30835       87.48981
O         44.27178       44.64215       87.68697
C         41.21526       45.52671       89.00081
C         40.68511       46.22684       90.27504
C         39.30672       45.79753       90.65725
O         38.37309       45.96287       89.89054
O         39.07946       45.29955       91.88570
H         41.68472       47.95765       88.38451
H         43.26609       45.85764       89.56379
H         41.25202       44.43021       89.18057
H         40.53030       45.71737       88.14516
H         40.63648       47.32396       90.13766
H         41.37571       46.01949       91.12026
N         42.76004       45.43349       86.23171
C         43.36708       44.84573       85.05411
H         44.27946       44.26023       85.29225
H         42.63582       44.18101       84.55019
H         43.65335       45.65810       84.35121
H         41.92209       46.00243       86.08662
Ca        37.19238       43.53668       90.82974
O         35.90621       46.44931       92.32777
H         36.57687       46.31342       93.04082
H         35.51468       47.33694       92.52432
O         35.26913       46.55623       89.42828
H         35.59583       47.47686       89.26904
H         34.34813       46.67384       89.77194

Ca 1.0



