%chk=holoCaM-CaMKII.loop3.water2.frame233.chk
%nprocshared=20
%mem=10GB
%nosave
#b3lyp/svp scf=(tight,noincore,xqc) Test 
#IOP(5/87=12) Density=Current Pop=(MK,readradii) iop(6/33=2) iop(6/42=6)

holoCaM-CaMKII.loop3.water2.frame233 

   0  1 
C         87.67641       26.75150       33.23997
C         88.86777       26.83167       32.34253
O         89.75996       26.00293       32.45379
H         86.76355       26.61313       32.62350
H         87.77334       25.89824       33.94349
H         87.59169       27.69405       33.81975
N         88.93861       27.81611       31.40667
C         90.05466       27.94397       30.48429
C         91.33194       28.23414       31.26407
O         91.49352       29.32671       31.78981
C         89.72695       29.04238       29.46126
C         90.73387       29.21014       28.37978
O         90.52489       30.05032       27.53073
O         91.83861       28.44867       28.30908
H         88.14808       28.47655       31.33597
H         90.14660       26.97890       29.93373
H         89.60581       30.01563       29.98444
H         88.76271       28.78780       28.96724
N         92.23548       27.23616       31.45648
C         93.42538       27.35632       32.29090
C         94.49000       28.21195       31.63111
O         95.00809       29.09993       32.29408
C         93.94048       25.94331       32.63920
C         95.23273       25.93672       33.47090
C         95.55508       24.51463       33.95233
C         96.95875       24.43596       34.56612
N         97.23629       23.08905       35.06561
H         92.01350       26.31013       31.05982
H         93.15160       27.80693       33.27329
H         94.12473       25.36505       31.71240
H         93.13370       25.43727       33.21824
H         95.13927       26.59948       34.35989
H         96.05627       26.31481       32.82726
H         95.51313       23.80726       33.09602
H         94.79140       24.20827       34.70266
H         97.05943       25.16495       35.40017
H         97.70399       24.69488       33.78059
H         97.10763       22.38335       34.30416
H         98.22537       23.04495       35.40188
H         96.59727       22.86662       35.86320
N         94.86901       28.01060       30.33485
C         95.95755       28.75613       29.70455
C         95.45841       29.91285       28.83890
O         96.27514       30.53831       28.17722
C         96.94208       27.78286       29.00471
C         96.44828       27.13880       27.74212
O         95.28630       27.50723       27.19283
O         97.13980       26.30989       27.17306
H         94.35750       27.31707       29.77151
H         96.57329       29.24311       30.49161
H         97.20726       26.98430       29.73238
H         97.87318       28.32663       28.73880
N         94.15839       30.33881       28.89219
C         93.69504       31.56062       28.24503
C         93.59456       31.50606       26.73204
O         93.33738       32.54728       26.14400
H         93.49465       29.86347       29.51789
H         94.37733       32.38659       28.54170
H         92.68257       31.81658       28.62666
N         93.76083       30.35155       26.02632
C         93.72644       30.28380       24.56103
C         92.31958       30.45270       23.95026
O         92.18749       30.30449       22.74454
C         94.43522       28.97724       24.09702
C         93.64028       27.65427       24.18285
N         92.95362       27.38350       22.92176
O         92.69507       27.71211       25.20894
H         93.99085       29.49801       26.54847
H         94.38456       31.09575       24.17962
H         95.36101       28.87018       24.70251
H         94.79061       29.10385       23.05127
H         93.65003       27.38016       22.14100
H         92.57201       26.41374       22.96473
N         91.23241       30.77338       24.71485
C         89.87026       30.93476       24.22306
C         89.04052       29.65660       24.26948
O         87.86829       29.73431       23.92607
H         91.37791       31.01871       25.69041
H         89.87229       31.38272       23.20579
H         89.35277       31.66300       24.88679
N         89.56203       28.44908       24.64526
C         88.81383       27.19013       24.63316
C         88.91419       26.43306       25.95922
O         89.68232       26.81603       26.83210
C         89.35287       26.26622       23.51477
C         89.09369       26.78675       22.11813
C         88.21236       26.08775       21.27523
C         89.71886       27.94799       21.63129
C         87.94656       26.54949       19.98478
C         89.45015       28.41134       20.34026
C         88.55874       27.71375       19.51344
O         88.28481       28.14924       18.26756
H         90.55041       28.40649       24.89502
H         87.73527       27.38414       24.44264
H         88.85113       25.28076       23.60883
H         90.43637       26.08375       23.65722
H         87.72205       25.18526       21.61833
H         90.41732       28.49679       22.24131
H         87.26036       26.00081       19.35274
H         89.93584       29.31143       19.98435
H         88.68190       28.95355       17.90471
N         88.14182       25.32075       26.15666
C         88.17681       24.45641       27.33821
C         88.38210       23.00882       26.88356
O         87.62897       22.54488       26.03539
C         86.84553       24.56713       28.13850
C         86.57013       26.03727       28.55051
C         86.90480       23.65517       29.38750
C         85.20482       26.23589       29.21446
H         87.45926       25.07463       25.42161
H         88.99586       24.76530       28.02719
H         86.01356       24.22674       27.48226
H         86.57177       26.67826       27.64388
H         87.36981       26.40111       29.23263
H         87.72193       23.98029       30.06849
H         85.94916       23.66079       29.94565
H         87.08496       22.59758       29.10604
H         85.12951       25.69171       30.17658
H         85.05188       27.31387       29.42992
H         84.39654       25.89335       28.53320
N         89.34713       22.22342       27.43944
C         89.59410       20.82879       27.07992
C         89.38861       19.91939       28.28620
O         89.02260       20.40624       29.34587
C         91.01797       20.69445       26.51346
O         91.97731       21.03665       27.47820
H         89.92371       22.61939       28.18789
H         88.89118       20.49683       26.28477
H         91.11171       21.33325       25.60392
H         91.21738       19.65731       26.17511
H         92.38492       21.89501       27.19376
N         89.58027       18.57392       28.19027
C         89.36576       17.64369       29.29800
C         90.31842       17.88963       30.45815
O         89.85374       18.08933       31.57084
C         89.52974       16.19769       28.81546
H         89.85858       18.18754       27.27433
H         88.31643       17.74784       29.65602
H         88.80361       15.98784       28.00181
H         90.55577       16.01703       28.42988
H         89.33125       15.49181       29.65060
N         91.66930       17.86424       30.26907
C         92.64403       18.02333       31.34857
C         92.43138       19.31461       32.11083
O         92.40584       19.28133       33.33372
C         94.07027       17.98183       30.78717
H         92.01980       17.72100       29.30957
H         92.55087       17.17099       32.05889
H         94.24442       17.01469       30.26842
H         94.23946       18.81142       30.06822
H         94.80889       18.06602       31.61404
N         92.22407       20.48447       31.44579
C         91.97784       21.76040       32.11750
C         90.78844       21.61957       33.05521
O         90.93003       21.87209       34.24360
C         91.72535       22.89621       31.09235
C         92.91074       23.09556       30.12271
C         92.64129       24.15251       29.08984
O         93.54141       25.10559       28.81879
O         91.63702       24.10454       28.40742
H         92.19834       20.43918       30.41792
H         92.87591       22.03858       32.71423
H         91.54219       23.84563       31.64139
H         90.81312       22.65532       30.50368
H         93.09303       22.16488       29.55923
H         93.84181       23.33001       30.67745
N         89.59625       21.15912       32.58980
C         88.45396       20.92817       33.44557
H         87.61348       20.51545       32.84592
H         88.71415       20.18838       34.23308
H         88.12793       21.87894       33.91452
H         89.50584       20.92848       31.59552
Ca        92.99603       26.32819       26.99516
O         91.41388       24.11959       25.27004
H         92.05606       23.84045       24.57043
H         90.54560       23.75389       24.96665
O         94.49017       23.68677       26.02551
H         94.73067       23.69074       25.06519
H         94.96835       24.46719       26.40229

Ca 1.0



