%chk=holoCaM-CaMKII.loop3.water2.frame261.chk
%nprocshared=20
%mem=10GB
%nosave
#b3lyp/svp scf=(tight,noincore,xqc) Test 
#IOP(5/87=12) Density=Current Pop=(MK,readradii) iop(6/33=2) iop(6/42=6)

holoCaM-CaMKII.loop3.water2.frame261 

   0  1 
C         78.35221       90.56323       57.62778
C         76.97719       90.34255       58.18133
O         76.06712       90.02527       57.42836
H         79.06155       89.85397       58.10380
H         78.36740       90.40506       56.52884
H         78.67619       91.60266       57.84608
N         76.75769       90.49503       59.51522
C         75.45469       90.29818       60.13625
C         74.45886       91.30066       59.56621
O         74.71560       92.49553       59.61526
C         75.58752       90.43003       61.67099
C         74.35398       90.02682       62.43998
O         74.37090       90.03791       63.65539
O         73.26601       89.57079       61.80349
H         77.56118       90.75098       60.11099
H         75.12629       89.25612       59.92530
H         75.88518       91.46524       61.92472
H         76.39702       89.74615       62.00862
N         73.30042       90.86403       58.99763
C         72.30600       91.73013       58.36401
C         71.85970       92.84967       59.29200
O         71.94217       93.99973       58.88338
C         71.11602       90.87472       57.86672
C         70.10811       91.63631       56.99465
C         69.06909       90.65833       56.41843
C         68.06179       91.36777       55.50477
N         67.13302       90.40651       54.90775
H         73.13085       89.84899       58.99930
H         72.77581       92.18707       57.46390
H         70.57202       90.43580       58.72536
H         71.53629       90.05048       57.24718
H         70.64778       92.11715       56.15007
H         69.60358       92.42347       57.59622
H         68.52339       90.15404       57.24642
H         69.60022       89.88291       55.82252
H         68.60621       91.89556       54.69050
H         67.49112       92.11977       56.09328
H         67.65863       89.71503       54.32407
H         66.60112       89.90278       55.65412
H         66.45727       90.91632       54.29397
N         71.43467       92.59979       60.56611
C         71.03802       93.66322       61.49368
C         72.04740       93.88231       62.62063
O         71.80783       94.75472       63.44477
C         69.60733       93.42444       62.02675
C         69.41286       92.20179       62.88603
O         70.32879       91.43265       63.12563
O         68.19681       91.96257       63.41123
H         71.43392       91.62406       60.89732
H         70.99819       94.63653       60.95690
H         68.91194       93.35975       61.16236
H         69.30926       94.30777       62.63300
N         73.22882       93.20047       62.68633
C         74.26418       93.51022       63.66441
C         73.94130       93.13162       65.09558
O         74.74358       93.46354       65.95723
H         73.45426       92.50976       61.96175
H         74.48105       94.59943       63.60885
H         75.19942       92.98051       63.39993
N         72.81515       92.44517       65.44590
C         72.47558       92.15759       66.83927
C         73.44482       91.21334       67.56091
O         73.26998       91.04420       68.75967
C         71.02049       91.64756       66.95594
C         70.73951       90.30992       66.31220
N         69.49050       89.79571       66.37464
O         71.62131       89.68613       65.74049
H         72.14762       92.17779       64.71195
H         72.50039       93.12992       67.38116
H         70.34741       92.40410       66.49549
H         70.75491       91.57274       68.03273
H         68.73484       90.30918       66.85202
H         69.27656       88.88380       65.94855
N         74.48295       90.58192       66.93264
C         75.46339       89.76326       67.63751
C         75.56085       88.32634       67.15736
O         76.41168       87.62449       67.68588
H         74.62906       90.72015       65.92821
H         75.25798       89.73353       68.72821
H         76.45892       90.23681       67.49882
N         74.76673       87.80704       66.17425
C         74.88751       86.41488       65.71159
C         74.10374       86.16380       64.43161
O         73.32121       87.01157       64.03662
C         74.47254       85.42466       66.82717
C         73.07382       85.69237       67.33735
C         72.88248       86.50157       68.47182
C         71.95328       85.14609       66.69111
C         71.59492       86.76952       68.94327
C         70.66530       85.40462       67.17414
C         70.48213       86.22300       68.29840
O         69.24630       86.49030       68.76700
H         74.08186       88.43076       65.72854
H         75.95237       86.24617       65.43624
H         75.17805       85.52484       67.67657
H         74.57033       84.36636       66.50130
H         73.72993       86.93658       68.98628
H         72.07584       84.51591       65.81907
H         71.46307       87.40312       69.81157
H         69.80995       84.97135       66.67201
H         68.44857       86.13566       68.34936
N         74.33756       85.04781       63.67555
C         73.71490       84.84776       62.36415
C         73.04058       83.49437       62.22821
O         73.23288       82.61259       63.05425
C         74.76468       85.03168       61.21902
C         75.91313       83.98614       61.30277
C         75.30009       86.47355       61.22648
C         76.88262       84.03739       60.11987
H         75.04410       84.37045       64.00049
H         72.91438       85.60494       62.20945
H         74.24189       84.88744       60.24755
H         75.47545       82.96500       61.30870
H         76.49485       84.11976       62.23909
H         75.95976       86.66423       60.35664
H         74.45242       87.18550       61.15091
H         75.86656       86.68502       62.15773
H         76.33625       83.88164       59.16546
H         77.42886       85.00100       60.08268
H         77.63803       83.23026       60.22996
N         72.24074       83.27894       61.14658
C         71.64865       82.00054       60.77510
C         72.04670       81.67100       59.33984
O         72.76703       82.44581       58.72947
C         70.11821       82.08980       60.91382
O         69.58382       83.07550       60.06925
H         72.05011       84.07917       60.52324
H         72.00298       81.18695       61.44505
H         69.84844       82.29115       61.97704
H         69.64408       81.11849       60.66138
H         69.50108       83.90553       60.60729
N         71.59557       80.54796       58.71761
C         71.85659       80.27545       57.30495
C         71.23885       81.35336       56.42803
O         71.90844       81.84617       55.53116
C         71.28573       78.91340       56.90436
H         71.01900       79.88258       59.25480
H         72.95439       80.22554       57.12300
H         70.18587       78.88048       57.05105
H         71.51358       78.71065       55.83462
H         71.75967       78.11516       57.51413
N         69.96595       81.78777       56.66373
C         69.28680       82.80602       55.86619
C         70.11092       84.06734       55.74348
O         70.37604       84.49503       54.62816
C         67.92859       83.15277       56.49513
H         69.46083       81.38319       57.46749
H         69.10277       82.40351       54.84571
H         67.28970       82.24757       56.55569
H         68.05946       83.55914       57.52225
H         67.40290       83.91587       55.88151
N         70.55388       84.71482       56.85296
C         71.32785       85.94537       56.78835
C         72.61798       85.73223       56.01498
O         72.84305       86.43669       55.04064
C         71.61355       86.48585       58.19775
C         70.31030       86.87299       58.93589
C         70.64748       87.63600       60.17099
O         71.34750       88.62345       60.06373
O         70.21627       87.30358       61.39889
H         70.32905       84.31052       57.77371
H         70.73211       86.72488       56.26021
H         72.23368       87.40146       58.06505
H         72.20093       85.76067       58.80188
H         69.69069       85.98668       59.18262
H         69.71793       87.55322       58.28680
N         73.49065       84.75186       56.37298
C         74.71288       84.45737       55.65265
H         75.57576       84.52274       56.34712
H         74.65692       83.42447       55.24735
H         74.88584       85.15434       54.80605
H         73.26599       84.16132       57.17980
Ca        71.50409       88.52593       62.76792
O         69.55125       86.52626       64.21432
H         70.50292       86.47064       64.48085
H         69.06123       86.67604       65.06100
O         68.08603       88.99036       62.75341
H         67.55084       88.18560       62.96669
H         68.47122       89.26653       63.62221

Ca 1.0



