%chk=holoCaM-CaMKII.loop2.water2.frame247.chk
%nprocshared=20
%mem=10GB
%nosave
#b3lyp/svp scf=(tight,noincore,xqc) Test 
#IOP(5/87=12) Density=Current Pop=(MK,readradii) iop(6/33=2) iop(6/42=6)

holoCaM-CaMKII.loop2.water2.frame247 

   -2  1 
C        107.74819      108.61083       41.47598
C        109.20916      108.46864       41.14801
O        109.97384      108.08758       42.02011
H        107.15798      108.91874       40.58651
H        107.35750      107.62569       41.81411
H        107.59923      109.35557       42.28281
N        109.66006      108.71390       39.88675
C        110.98474      108.31314       39.42605
C        112.03989      109.39804       39.55259
O        111.84371      110.48797       39.03356
C        110.88501      107.88179       37.95421
C        112.19561      107.34771       37.47374
O        112.71516      107.80856       36.47191
O        112.82115      106.38825       38.17901
H        108.95934      108.98036       39.17720
H        111.30094      107.40514       39.98834
H        110.55910      108.72948       37.31081
H        110.12741      107.07983       37.86933
N        113.23836      109.11162       40.14588
C        114.37410      110.02900       40.17079
C        115.64329      109.43218       39.54011
O        116.64840      110.13039       39.53414
C        114.66564      110.39159       41.63067
H        113.36106      108.18788       40.58830
H        114.13122      110.96724       39.62634
H        113.76565      110.84733       42.09465
H        114.94264      109.48192       42.20757
H        115.49894      111.12362       41.69652
N        115.70731      108.14881       39.06061
C        116.96626      107.49355       38.68684
C        116.97806      106.82945       37.30608
O        118.02133      106.29762       36.94853
C        117.33132      106.48445       39.79712
C        116.22455      105.51572       40.11376
O        115.67263      105.50634       41.34181
O        115.80972      104.74789       39.26667
H        114.86590      107.56219       39.08202
H        117.79718      108.23333       38.65897
H        117.54326      107.06355       40.72173
H        118.25761      105.93081       39.53033
N        115.91516      106.84737       36.45263
C        116.00070      106.32188       35.09333
C        116.18746      104.81640       34.97587
O        116.49704      104.37986       33.87580
H        115.05572      107.32907       36.73158
H        116.86039      106.82214       34.59366
H        115.08942      106.59294       34.51758
N        115.98066      103.95040       36.01360
C        116.17914      102.50449       35.87861
C        114.92619      101.74905       35.41973
O        114.97497      100.52843       35.35503
C        116.81891      101.88955       37.14773
C        115.93863      101.74840       38.36295
N        116.40042      101.04863       39.42506
O        114.81214      102.21804       38.38963
H        115.63416      104.31985       36.90563
H        116.94772      102.32706       35.09374
H        117.73518      102.45549       37.42574
H        117.13161      100.85710       36.88027
H        117.34249      100.63299       39.41290
H        115.81222      100.88318       40.24873
N        113.79633      102.40057       35.01621
C        112.61734      101.73166       34.47745
C        111.77506      100.94680       35.47347
O        110.78313      100.37940       35.03625
H        113.79689      103.42646       34.98119
H        112.93545      101.06019       33.65002
H        111.94823      102.50435       34.04194
N        112.08332      100.84600       36.79803
C        111.31218      100.04940       37.75654
C        110.88354      100.88487       38.96055
O        111.15279      102.07745       38.99395
C        112.16242       98.82748       38.19573
C        112.45936       97.89117       37.01417
O        113.34395       99.22989       38.84590
H        112.92801      101.31264       37.14485
H        110.38279       99.65027       37.29294
H        111.58666       98.20666       38.91036
H        113.99813       99.50926       38.15457
H        111.50593       97.54293       36.56050
H        113.05722       98.40532       36.23316
H        113.02316       97.00399       37.37003
N        110.24360      100.29771       40.01454
C        109.89147      100.98325       41.25271
C        110.90822      100.56169       42.30182
O        111.07474       99.36886       42.52336
C        108.43956      100.61351       41.69878
C        107.40770      100.94001       40.58863
C        108.07827      101.33561       43.01603
C        105.98869      100.45766       40.91528
H        110.06435       99.28337       39.98475
H        109.94486      102.08809       41.12146
H        108.40524       99.51586       41.88217
H        107.70746      100.42127       39.65350
H        107.38963      102.03341       40.38913
H        108.08777      102.43793       42.87644
H        107.08213      101.02965       43.39200
H        108.79374      101.07271       43.81782
H        105.31925      100.66160       40.05358
H        105.98853       99.36321       41.10853
H        105.56433      100.98354       41.79381
N        111.60692      101.49578       43.00668
C        112.56106      101.16325       44.05590
C        111.86179      101.18905       45.40075
O        110.68068      101.50328       45.46466
C        113.79171      102.10816       44.01321
C        114.67555      101.84507       42.81584
O        114.25307      102.06845       41.55437
O        115.79288      101.38435       42.99062
H        111.36077      102.48477       42.88085
H        112.91518      100.11480       43.93944
H        114.41177      101.91255       44.91326
H        113.48023      103.17529       44.05201
N        112.51849      100.77923       46.52187
C        111.85944      100.65248       47.81216
C        111.31435      101.98177       48.32404
O        110.15244      101.98896       48.70001
C        112.76996       99.97937       48.85961
C        111.95983       99.52140       50.05384
C        112.15431      100.08766       51.32342
C        110.99203       98.50819       49.89718
C        111.38706       99.65461       52.41195
C        110.23253       98.07680       50.98656
C        110.42797       98.65099       52.24341
H        113.50209      100.47916       46.43913
H        111.00369       99.95864       47.65355
H        113.58206      100.67407       49.15292
H        113.24687       99.07357       48.42516
H        112.88989      100.86796       51.46911
H        110.82678       98.04600       48.93152
H        111.53436      100.09749       53.38782
H        109.49259       97.29702       50.85462
H        109.83636       98.31645       53.08585
N        112.03971      103.14912       48.37778
C        111.46736      104.40359       48.84796
C        110.46477      104.99972       47.86392
O        109.74959      105.90963       48.25988
C        112.68945      105.30832       49.03313
C        113.59792      104.83232       47.91857
C        113.43024      103.31560       47.99946
H        110.96632      104.26193       49.83181
H        112.47622      106.39918       49.05431
H        113.19184      105.02994       49.98693
H        113.15613      105.18320       46.95843
H        114.65052      105.18266       47.96613
H        113.68419      102.89900       47.00782
H        114.07168      102.87497       48.79155
N        110.34574      104.54827       46.58026
C        109.35361      105.06721       45.63945
C        108.06711      104.25378       45.69648
O        107.11300      104.62890       45.03016
C        109.91608      105.05828       44.20232
C        111.20002      105.89300       44.10114
C        111.85502      105.83151       42.75561
O        112.96075      106.32825       42.61735
O        111.30673      105.17917       41.71636
H        110.97692      103.80642       46.25185
H        109.10600      106.11930       45.90272
H        109.16062      105.45575       43.48943
H        110.13280      104.00676       43.92360
H        111.94106      105.48703       44.82001
H        110.99400      106.95216       44.36038
N        107.96446      103.13242       46.46731
C        106.76818      102.32827       46.58342
H        105.92655      102.73133       45.98537
H        106.99011      101.29509       46.24260
H        106.46116      102.29067       47.65051
H        108.77036      102.80866       47.00501
Ca       112.61827      103.50565       41.06270
O        110.09765      104.78311       39.07795
H        109.54587      105.32309       39.69752
H        109.60310      104.80518       38.22070
O        112.50917      103.91271       37.21373
H        113.10378      104.53079       36.72110
H        111.64398      103.97675       36.73851

Ca 1.0



