%chk=holoCaM-CaMKII.loop3.water1.frame441.chk
%nprocshared=20
%mem=10GB
%nosave
#b3lyp/svp scf=(tight,noincore,xqc) Test 
#IOP(5/87=12) Density=Current Pop=(MK,readradii) iop(6/33=2) iop(6/42=6)

holoCaM-CaMKII.loop3.water1.frame441 

   0  1 
C         60.47878       64.48375       28.90754
C         59.52283       64.96688       29.95345
O         59.96074       65.45272       30.98765
H         61.52963       64.63344       29.23524
H         60.30917       63.40333       28.71999
H         60.31293       65.05081       27.96748
N         58.18072       64.87551       29.73985
C         57.20409       65.36283       30.70091
C         57.31550       64.58611       32.00265
O         57.33119       63.36323       31.96009
C         55.76420       65.27372       30.13569
C         54.81243       66.11942       30.94191
O         55.31691       66.93409       31.88047
O         53.62215       66.12122       30.69805
H         57.85014       64.47683       28.84749
H         57.43631       66.43178       30.87250
H         55.43633       64.21186       30.11708
H         55.73359       65.67557       29.10054
N         57.39480       65.23571       33.19882
C         57.66129       64.55667       34.46059
C         56.37672       64.27213       35.23851
O         56.43918       63.52857       36.20741
C         58.68305       65.42441       35.22985
C         59.45868       64.74405       36.36511
C         60.47830       65.75253       36.93845
C         61.51249       65.13920       37.89378
N         60.90718       64.56480       39.09284
H         57.31194       66.26151       33.21480
H         58.12880       63.57341       34.23057
H         58.17405       66.34427       35.59601
H         59.45515       65.73700       34.49029
H         60.00473       63.87557       35.93606
H         58.77539       64.38684       37.16326
H         59.93589       66.58277       37.44255
H         61.06397       66.19040       36.09930
H         62.21775       65.94611       38.19688
H         62.09943       64.36036       37.35822
H         60.34867       65.29029       39.59751
H         60.30288       63.75080       38.84160
H         61.67139       64.22744       39.72235
N         55.17597       64.82195       34.87390
C         53.91023       64.54194       35.55235
C         52.74202       64.31740       34.57422
O         51.62908       64.12131       35.04303
C         53.63615       65.63802       36.60224
C         53.56266       67.02498       36.04646
O         54.46095       67.95193       36.43100
O         52.67298       67.33134       35.27576
H         55.16245       65.53402       34.13234
H         53.99488       63.60398       36.14571
H         54.46759       65.60857       37.34013
H         52.69542       65.41576       37.15108
N         52.91870       64.26121       33.21753
C         51.85902       63.92076       32.27268
C         50.78702       64.97605       32.04128
O         49.88499       64.68579       31.26724
H         53.86446       64.34566       32.82558
H         51.37875       62.97283       32.60127
H         52.32087       63.72565       31.28014
N         50.78801       66.20234       32.64348
C         49.69999       67.16794       32.43970
C         49.60806       67.69893       31.00873
O         48.58483       68.27351       30.66445
C         49.78794       68.34214       33.43610
C         50.93212       69.28484       33.14393
N         50.70409       70.59956       32.93355
O         52.07488       68.86376       33.09493
H         51.54059       66.42265       33.30383
H         48.75825       66.62108       32.67127
H         49.89488       67.93265       34.46346
H         48.83300       68.91073       33.40322
H         49.75204       70.99096       32.97304
H         51.49317       71.22977       32.73935
N         50.64498       67.56802       30.13517
C         50.59727       67.97036       28.74166
C         51.65096       68.99142       28.37009
O         51.91213       69.10550       27.18019
H         51.51370       67.13226       30.45549
H         49.60179       68.35033       28.42839
H         50.79689       67.05191       28.14691
N         52.25972       69.80865       29.28607
C         53.29079       70.77509       28.89615
C         54.52734       70.65955       29.76080
O         54.48847       69.97659       30.77625
C         52.70946       72.20532       28.84656
C         52.23092       72.79612       30.15769
C         53.14135       73.16830       31.16435
C         50.86003       73.03993       30.35861
C         52.68848       73.77525       32.34148
C         50.40942       73.64041       31.53850
C         51.32374       74.01448       32.53298
O         50.90417       74.60497       33.67049
H         51.95965       69.77504       30.27191
H         53.62498       70.54926       27.86006
H         51.85910       72.16356       28.13088
H         53.45533       72.90399       28.41036
H         54.20363       73.01563       31.03539
H         50.13612       72.77004       29.60013
H         53.40050       74.06802       33.10301
H         49.35032       73.81972       31.67549
H         49.96972       74.79456       33.83797
N         55.68689       71.27973       29.38582
C         56.91330       71.20567       30.17559
C         57.45977       72.59047       30.48087
O         56.98666       73.57519       29.92892
C         57.97634       70.29827       29.48355
C         58.47282       70.87772       28.13359
C         57.39918       68.88278       29.30684
C         59.59743       70.05494       27.49748
H         55.70724       71.79108       28.49027
H         56.68480       70.74633       31.16174
H         58.84890       70.22268       30.17008
H         58.87439       71.89925       28.30363
H         57.63234       70.94837       27.41093
H         57.00875       68.51950       30.27345
H         56.56154       68.87930       28.57826
H         58.17275       68.16391       28.96998
H         59.25347       69.03635       27.22572
H         59.93480       70.55060       26.56317
H         60.46143       69.97918       28.19161
N         58.45226       72.72524       31.40211
C         59.05176       73.99711       31.78944
C         60.56875       73.90689       31.71825
O         61.09284       72.86666       31.35206
C         58.59467       74.33592       33.22095
O         59.00231       73.35324       34.13455
H         58.77080       71.87795       31.89689
H         58.70990       74.82227       31.12714
H         57.48611       74.45307       33.24289
H         59.00552       75.31164       33.55168
H         58.26489       72.69170       34.19257
N         61.34618       74.95686       32.10202
C         62.79798       74.86345       32.23269
C         63.15919       73.81377       33.27131
O         64.00931       72.97551       33.00773
C         63.37998       76.21346       32.66674
H         60.88388       75.83933       32.36976
H         63.25942       74.60844       31.25197
H         63.14539       76.98826       31.90645
H         62.96291       76.53256       33.64581
H         64.48572       76.13895       32.75670
N         62.50593       73.79155       34.46932
C         62.78006       72.84339       35.54510
C         62.73887       71.40535       35.06858
O         63.71281       70.69083       35.26179
C         61.75673       73.03367       36.67640
H         61.75666       74.48589       34.61713
H         63.79240       73.04875       35.95707
H         60.72311       72.84769       36.31020
H         61.96437       72.33232       37.51204
H         61.80417       74.07212       37.06658
N         61.63906       70.91256       34.44042
C         61.52956       69.52718       33.99552
C         62.61404       69.21452       32.97965
O         63.38422       68.28909       33.19539
C         60.13784       69.25339       33.39679
C         59.00077       69.48274       34.42144
C         57.65253       69.19540       33.83380
O         56.52191       69.42856       34.53020
O         57.56008       68.74911       32.70239
H         60.85616       71.55874       34.27373
H         61.64582       68.84844       34.87073
H         60.10217       68.19460       33.05325
H         59.97620       69.90993       32.51426
H         58.99563       70.53285       34.76384
H         59.14668       68.82568       35.30534
N         62.75201       69.97361       31.85991
C         63.79361       69.74513       30.88352
H         64.79089       69.81547       31.36828
H         63.66988       68.74337       30.42249
H         63.73712       70.51685       30.08547
H         62.11004       70.75815       31.70644
Ca        54.82581       68.39253       33.49371
O         53.79956       71.29885       34.38095
H         54.48241       72.01040       34.46827
H         53.05804       71.59143       34.96844

Ca 1.0



