%chk=holoCaM-CaMKII.loop2.water1.frame179.chk
%nprocshared=20
%mem=10GB
%nosave
#b3lyp/svp scf=(tight,noincore,xqc) Test 
#IOP(5/87=12) Density=Current Pop=(MK,readradii) iop(6/33=2) iop(6/42=6)

holoCaM-CaMKII.loop2.water1.frame179 

   -2  1 
C        121.82968       57.79700        4.66071
C        122.52027       58.82547        3.82100
O        122.11694       59.04927        2.68793
H        120.98529       57.33764        4.10526
H        122.55254       57.00489        4.94606
H        121.43427       58.27959        5.57969
N        123.57325       59.51591        4.33474
C        124.25767       60.56403        3.59482
C        124.94362       59.97257        2.37321
O        125.77263       59.08727        2.53206
C        125.23677       61.30854        4.53203
C        125.69094       62.61571        3.96077
O        125.42152       62.91920        2.68746
O        126.13793       63.47127        4.69799
H        123.86380       59.31289        5.30454
H        123.48513       61.30738        3.28863
H        126.09658       60.68321        4.85389
H        124.64958       61.58008        5.43776
N        124.62601       60.40666        1.11792
C        125.15677       59.80496       -0.10044
C        126.36870       60.54384       -0.64447
O        127.01945       60.00040       -1.52628
C        124.04625       59.69433       -1.15029
H        123.95936       61.17910        1.02288
H        125.50671       58.77614        0.13583
H        123.67654       60.70621       -1.42739
H        124.41702       59.18698       -2.06552
H        123.19479       59.10939       -0.74102
N        126.76647       61.74911       -0.14434
C        128.03597       62.38567       -0.47923
C        128.92548       62.51961        0.76660
O        130.04101       63.00286        0.63360
C        127.79533       63.70932       -1.23627
C        126.99745       64.72949       -0.47950
O        127.48070       65.26179        0.65224
O        125.92375       65.11473       -0.91367
H        126.16861       62.22871        0.53648
H        128.61174       61.74666       -1.18451
H        127.25409       63.46469       -2.17746
H        128.77113       64.15916       -1.52105
N        128.53662       62.03377        1.98914
C        129.40486       61.95194        3.15662
C        129.80943       63.26175        3.80767
O        130.56625       63.19155        4.76608
H        127.61938       61.58282        2.09335
H        130.32219       61.39365        2.86891
H        128.88557       61.35607        3.93954
N        129.38746       64.48290        3.37171
C        129.87851       65.72987        3.96472
C        129.43171       65.97227        5.41268
O        129.93613       66.91135        6.01246
C        129.54039       66.94856        3.07004
C        128.07403       67.24209        2.86416
N        127.70646       68.31497        2.12848
O        127.21554       66.51864        3.33914
H        128.76915       64.52703        2.55550
H        130.98946       65.66484        3.97205
H        129.99216       66.78635        2.06739
H        130.01269       67.85123        3.51333
H        128.41494       68.93557        1.71217
H        126.71306       68.53027        1.97495
N        128.48824       65.20389        6.03090
C        128.04691       65.39796        7.40832
C        126.62605       65.93546        7.51821
O        126.15503       66.07837        8.63741
H        128.04914       64.44574        5.50685
H        128.69980       66.12329        7.94079
H        128.13186       64.42680        7.94137
N        125.92242       66.34416        6.42118
C        124.64797       67.05538        6.47748
C        123.63701       66.44616        5.51466
O        123.94107       66.29002        4.34520
C        124.90090       68.53347        6.09775
C        123.60970       69.36113        6.11370
O        125.79790       69.10923        7.01354
H        126.35889       66.26009        5.50049
H        124.23538       67.05757        7.51134
H        125.32352       68.59295        5.06744
H        126.71560       68.91275        6.68987
H        123.83611       70.41415        5.84618
H        122.87761       68.97503        5.37450
H        123.14451       69.33656        7.12207
N        122.38243       66.14118        5.93758
C        121.31728       65.64580        5.06246
C        120.88889       66.70512        4.02385
O        120.51581       67.80748        4.39745
C        120.11064       65.16917        5.94235
C        120.55319       63.93638        6.78604
C        118.88466       64.81400        5.08651
C        119.48435       63.40079        7.73982
H        122.17132       66.28533        6.93675
H        121.67714       64.74214        4.52078
H        119.80567       65.99945        6.61764
H        121.43113       64.20397        7.40894
H        120.86104       63.10966        6.10718
H        118.02020       64.51524        5.71049
H        118.53854       65.70294        4.52689
H        119.13291       63.99194        4.38874
H        119.90944       62.55840        8.32546
H        119.15977       64.19722        8.44109
H        118.60734       63.00360        7.19036
N        120.80608       66.35567        2.70220
C        120.17306       67.13169        1.63192
C        118.77340       66.57359        1.40201
O        118.38890       65.65212        2.09677
C        120.96089       66.97036        0.30579
C        122.32399       67.57683        0.32878
O        122.45879       68.90792        0.48059
O        123.30961       66.88299        0.13462
H        121.03204       65.39225        2.46643
H        120.07776       68.20355        1.91183
H        120.42707       67.47357       -0.52571
H        121.03276       65.88709        0.05505
N        117.93802       67.08214        0.45456
C        116.59266       66.55455        0.23118
C        116.57632       65.09460       -0.25253
O        115.88396       64.31492        0.38726
C        115.78229       67.49457       -0.68194
C        114.32442       67.09394       -0.80108
C        113.74301       66.92308       -2.06859
C        113.52239       66.91026        0.34552
C        112.39232       66.57808       -2.18728
C        112.17821       66.54962        0.22105
C        111.61225       66.38721       -1.04409
H        118.25070       67.89671       -0.09586
H        116.07719       66.58762        1.21491
H        116.25971       67.56767       -1.68135
H        115.80659       68.50751       -0.22393
H        114.32969       67.07095       -2.96611
H        113.92640       67.03854        1.34037
H        111.94883       66.46068       -3.16706
H        111.57396       66.40104        1.10737
H        110.56829       66.11724       -1.13769
N        117.30570       64.60922       -1.31629
C        117.28221       63.20655       -1.74913
C        117.93961       62.24293       -0.76200
O        117.98994       61.05482       -1.04855
C        118.02713       63.23392       -3.08746
C        119.04206       64.32883       -2.85591
C        118.20160       65.38915       -2.14572
H        116.24310       62.85416       -1.93018
H        118.43411       62.25620       -3.42746
H        117.32984       63.61004       -3.86935
H        119.79642       63.93524       -2.13638
H        119.57563       64.68966       -3.75997
H        118.89618       66.03101       -1.57770
H        117.59617       65.98875       -2.85823
N        118.41924       62.67252        0.43192
C        118.99183       61.82547        1.46225
C        117.91897       61.63125        2.52381
O        117.60940       60.49300        2.84686
C        120.30688       62.48485        1.94724
C        121.29727       62.56054        0.75870
C        122.55402       63.36293        0.94849
O        123.35686       63.41295        0.03038
O        122.82054       64.05072        2.06805
H        118.35966       63.66575        0.66345
H        119.24472       60.81392        1.07135
H        120.76139       61.91257        2.78585
H        120.06268       63.49515        2.31322
H        120.80066       63.02559       -0.11467
H        121.57901       61.51972        0.48984
N        117.21463       62.68926        3.01392
C        116.06671       62.53842        3.87912
H        115.29030       61.93040        3.36498
H        116.35908       62.05548        4.83205
H        115.62712       63.53738        4.09500
H        117.44795       63.63785        2.71590
Ca       124.86360       64.98284        2.13041
O        123.91247       68.45007        2.79276
H        124.48901       68.33529        1.99833
H        124.06259       69.38384        3.07874

Ca 1.0



