%chk=holoCaM-CaMKII.loop2.water2.frame319.chk
%nprocshared=20
%mem=10GB
%nosave
#b3lyp/svp scf=(tight,noincore,xqc) Test 
#IOP(5/87=12) Density=Current Pop=(MK,readradii) iop(6/33=2) iop(6/42=6)

holoCaM-CaMKII.loop2.water2.frame319 

   -2  1 
C         59.23836       27.66679       51.05468
C         58.77582       27.04827       49.77055
O         58.34251       25.90855       49.77709
H         60.19559       28.20955       50.91048
H         58.46229       28.38890       51.39215
H         59.35862       26.89247       51.84007
N         58.76699       27.78493       48.63267
C         58.12212       27.33573       47.40294
C         58.89530       26.26415       46.61888
O         60.11241       26.18464       46.71318
C         57.92580       28.56218       46.51544
C         57.27799       28.25875       45.20124
O         56.00593       27.77601       45.03435
O         57.97461       28.44391       44.21861
H         59.12995       28.75229       48.68972
H         57.11455       26.96262       47.66671
H         58.94871       28.96990       46.31899
H         57.35783       29.35199       47.04375
N         58.20378       25.45502       45.75426
C         58.79038       24.48178       44.83405
C         58.10535       24.46048       43.43744
O         58.54958       23.67463       42.61232
C         58.69057       23.09990       45.48840
H         57.18109       25.49608       45.80230
H         59.87562       24.68858       44.69165
H         57.63187       22.85980       45.72204
H         59.11260       22.30385       44.83716
H         59.27188       23.10414       46.43662
N         57.01067       25.22821       43.10903
C         56.26577       25.12837       41.83752
C         56.06573       26.46444       41.08413
O         55.61735       26.42893       39.94669
C         54.89238       24.47127       42.11761
C         54.15600       25.13693       43.23958
O         53.86720       26.31392       43.16322
O         53.84441       24.44245       44.35105
H         56.61921       25.84958       43.81522
H         56.81146       24.46482       41.13473
H         55.05582       23.41568       42.41702
H         54.25170       24.48166       41.20848
N         56.35688       27.66519       41.64836
C         56.21127       28.97514       41.02851
C         54.77138       29.32426       40.76797
O         54.47476       29.86217       39.71071
H         56.68753       27.66467       42.60042
H         56.83476       29.06349       40.11001
H         56.58678       29.73645       41.74721
N         53.82845       29.10743       41.72704
C         52.42397       29.45315       41.55327
C         52.06463       30.67464       42.40022
O         50.90990       31.07612       42.37751
C         51.50245       28.22710       41.82848
C         51.43976       27.80767       43.26825
N         50.53522       26.89748       43.67446
O         52.18341       28.30698       44.09164
H         54.13097       28.71765       42.63153
H         52.23122       29.74236       40.49854
H         51.79418       27.35133       41.20242
H         50.46374       28.50151       41.54565
H         49.88024       26.44485       43.02220
H         50.47175       26.69274       44.67297
N         53.00960       31.36026       43.11995
C         52.71476       32.58180       43.85474
C         51.89791       32.38627       45.12301
O         51.51056       33.38714       45.70710
H         53.99691       31.07368       43.08027
H         52.20006       33.27782       43.15886
H         53.66536       33.06799       44.16752
N         51.60085       31.15068       45.61635
C         50.82830       30.90884       46.83333
C         51.47492       29.84312       47.70159
O         52.03414       28.88617       47.18546
C         49.37575       30.45183       46.49836
C         48.56725       31.59708       45.90000
O         49.30397       29.36333       45.60572
H         51.93430       30.33523       45.10473
H         50.74395       31.83874       47.43970
H         48.87036       30.16431       47.44836
H         50.16461       28.88366       45.58674
H         48.51090       32.45088       46.60949
H         49.02226       31.93127       44.94514
H         47.53247       31.24514       45.70460
N         51.32036       29.88883       49.05056
C         51.70523       28.78464       49.91703
C         50.71496       27.66147       49.71334
O         49.52031       27.87104       49.87760
C         51.77695       29.26071       51.38914
C         52.96919       30.24575       51.50974
C         51.94689       28.07130       52.35854
C         52.90027       31.09274       52.77228
H         50.82881       30.69494       49.46950
H         52.73042       28.43174       49.66453
H         50.82680       29.78068       51.64422
H         52.96041       30.97188       50.66921
H         53.93159       29.68564       51.44529
H         51.04203       27.42759       52.33748
H         52.82286       27.45591       52.06881
H         52.07732       28.40325       53.40635
H         51.96474       31.69199       52.74500
H         52.91421       30.47490       53.68975
H         53.76270       31.79156       52.79269
N         51.16984       26.41942       49.40257
C         50.31875       25.25108       49.30736
C         50.39071       24.51913       50.63147
O         51.15195       24.94197       51.48512
C         50.79550       24.35073       48.15317
C         50.91218       25.08823       46.84542
O         52.04505       25.79618       46.54509
O         50.06266       24.88937       45.99258
H         52.18086       26.26053       49.37787
H         49.26161       25.56102       49.13603
H         50.08425       23.49870       48.05196
H         51.79403       23.91434       48.36759
N         49.61377       23.43850       50.90899
C         49.64577       22.79990       52.22363
C         51.04157       22.29155       52.61405
O         51.45367       22.61866       53.71817
C         48.55160       21.71913       52.36041
C         48.56608       21.08499       53.73759
C         48.38785       21.85999       54.90199
C         48.77634       19.70209       53.86721
C         48.44133       21.26044       56.16505
C         48.81972       19.10683       55.13043
C         48.65945       19.88552       56.27931
H         48.95134       23.10086       50.19288
H         49.37244       23.57872       52.96949
H         48.67408       20.94075       51.58140
H         47.56097       22.19729       52.19347
H         48.21710       22.92714       54.83982
H         48.91196       19.08194       52.99089
H         48.31581       21.86175       57.05679
H         48.98266       18.04048       55.21444
H         48.70265       19.42420       57.25783
N         51.84311       21.52252       51.80959
C         53.18202       21.06927       52.18778
C         54.07110       22.21110       52.64885
O         54.70182       22.13162       53.69261
C         53.75639       20.48987       50.87933
C         52.51910       20.01682       50.16004
C         51.52111       21.12886       50.45571
H         53.09697       20.27794       52.96431
H         54.17416       21.29699       50.23495
H         54.54627       19.72161       51.02426
H         52.66206       19.80335       49.07830
H         52.16744       19.09821       50.67719
H         51.67597       22.01010       49.79768
H         50.50225       20.71845       50.33364
N         54.14964       23.31552       51.86680
C         55.01713       24.46193       52.09665
C         54.66135       25.16449       53.39647
O         55.55798       25.64641       54.07396
C         54.89380       25.41095       50.88654
C         55.30713       24.68156       49.57705
C         54.98462       25.45100       48.34851
O         55.27637       24.98976       47.25778
O         54.32220       26.61267       48.42881
H         53.53486       23.32950       51.04102
H         56.07842       24.12699       52.14328
H         55.53107       26.31563       51.01831
H         53.83876       25.74250       50.82630
H         54.78620       23.71786       49.43232
H         56.38771       24.45770       49.60920
N         53.37361       25.21479       53.83461
C         52.99297       25.82578       55.08709
H         51.89882       25.70364       55.24707
H         53.52804       25.33065       55.92389
H         53.23529       26.90822       55.07338
H         52.63392       24.77943       53.27783
Ca        53.95587       27.03609       45.91211
O         54.60523       30.01871       45.30509
H         55.40449       30.31266       44.79934
H         54.57287       30.61715       46.08987
O         55.11241       29.61620       48.39317
H         55.27606       28.70541       48.73068
H         55.83964       30.14327       48.80511

Ca 1.0



