%chk=holoCaM-CaMKII.loop3.water2.frame214.chk
%nprocshared=20
%mem=10GB
%nosave
#b3lyp/svp scf=(tight,noincore,xqc) Test 
#IOP(5/87=12) Density=Current Pop=(MK,readradii) iop(6/33=2) iop(6/42=6)

holoCaM-CaMKII.loop3.water2.frame214 

   0  1 
C         28.55494       63.06725       23.10736
C         28.96958       63.15628       21.66880
O         29.47909       64.18267       21.24919
H         27.46560       62.85887       23.16996
H         29.10967       62.23977       23.59884
H         28.77178       64.01396       23.64533
N         28.75612       62.09703       20.84662
C         29.12384       62.05466       19.43928
C         27.83190       62.02555       18.64644
O         27.43543       60.99338       18.12629
C         30.04561       60.83566       19.22661
C         30.55043       60.66729       17.82308
O         31.39561       59.65774       17.55053
O         30.22085       61.43212       16.93339
H         28.28510       61.26572       21.23834
H         29.69408       62.96127       19.13058
H         29.51785       59.90545       19.52431
H         30.93538       60.95947       19.88207
N         27.08033       63.15904       18.60962
C         25.72599       63.24297       18.06520
C         25.64814       63.21042       16.53972
O         24.53622       63.17651       16.03110
C         25.03380       64.49502       18.64630
C         24.93821       64.35473       20.17974
C         24.33493       65.58325       20.85664
C         24.29053       65.42340       22.38891
N         23.42602       64.31811       22.81282
H         27.46751       63.98431       19.09301
H         25.15153       62.36258       18.43198
H         24.00366       64.59084       18.23865
H         25.61068       65.40444       18.36676
H         25.94102       64.19995       20.62895
H         24.32055       63.45793       20.39170
H         23.31285       65.77238       20.46538
H         24.97287       66.46368       20.62122
H         23.90335       66.36987       22.82384
H         25.31956       65.26290       22.78427
H         23.35801       64.31998       23.85567
H         22.46789       64.43398       22.41027
H         23.82548       63.39658       22.52566
N         26.76025       63.15877       15.75067
C         26.71513       62.94058       14.29975
C         27.26003       61.56740       13.92979
O         27.14806       61.18862       12.77137
C         27.46169       64.04092       13.49770
C         28.93512       64.22318       13.81768
O         29.48924       63.63072       14.89609
O         29.60778       64.95943       13.11795
H         27.67125       63.19120       16.21503
H         25.65773       62.94038       13.95395
H         26.95303       65.01848       13.63750
H         27.37236       63.77853       12.41916
N         27.86147       60.76428       14.85019
C         28.38735       59.45044       14.55963
C         29.43860       59.50134       13.48556
O         29.30138       58.78203       12.50652
H         27.97256       61.08273       15.81364
H         27.55834       58.77147       14.26257
H         28.84888       59.03971       15.48516
N         30.52462       60.31995       13.60584
C         31.61045       60.33680       12.62975
C         32.92213       59.85001       13.25033
O         33.89928       59.74770       12.52221
C         31.73387       61.73919       11.96792
C         32.30621       62.83110       12.83741
N         32.43371       64.09445       12.37173
O         32.68856       62.57665       13.95978
H         30.58937       60.93785       14.42833
H         31.37269       59.63194       11.80524
H         30.72628       62.05012       11.61360
H         32.40084       61.65953       11.08410
H         32.12719       64.34135       11.42071
H         32.84232       64.83010       12.96963
N         33.02301       59.54499       14.58416
C         34.24384       59.08532       15.23004
C         34.80394       60.09618       16.21916
O         35.85204       59.81936       16.78395
H         32.20640       59.64648       15.19708
H         35.03947       58.90159       14.47664
H         34.03736       58.12261       15.74403
N         34.22110       61.31713       16.41159
C         34.85533       62.42032       17.12454
C         33.90286       63.05380       18.17553
O         32.52817       62.96141       17.90078
C         35.35331       63.44123       16.07401
C         36.33801       62.80769       15.10796
C         36.04921       62.74930       13.73411
C         37.55065       62.26094       15.57039
C         36.94262       62.14559       12.84446
C         38.44259       61.65602       14.67866
C         38.13915       61.59421       13.31161
O         38.98669       61.01037       12.44012
H         33.34894       61.53503       15.92401
H         35.75294       62.08008       17.68310
H         35.86645       64.29127       16.57193
H         34.47738       63.83874       15.52227
H         35.13210       63.16674       13.34672
H         37.80669       62.29433       16.62142
H         36.70217       62.10444       11.78958
H         39.36753       61.23360       15.05159
H         39.82327       60.61316       12.72165
N         34.34250       64.38110       18.63656
C         33.43545       65.14978       19.51586
C         33.85917       66.60919       19.41623
O         35.01513       66.91225       19.67813
C         33.45389       64.69592       21.01977
C         33.00661       63.21982       21.19110
C         32.53711       65.63406       21.84647
C         33.07005       62.71008       22.63448
H         35.28969       64.29877       19.07587
H         32.39111       65.06484       19.14818
H         34.49002       64.79235       21.41294
H         33.68757       62.56172       20.62037
H         31.97328       63.08846       20.80482
H         32.88079       66.68598       21.79117
H         31.49697       65.59755       21.46643
H         32.53830       65.38396       22.92387
H         34.10190       62.81588       23.03236
H         32.36058       63.24289       23.29775
H         32.79142       61.63549       22.65675
N         32.94783       67.57233       19.09670
C         33.25707       68.99684       19.03488
C         32.58230       69.72518       20.18520
O         31.89992       69.10107       20.98033
C         32.80519       69.56173       17.67632
O         33.49953       68.94404       16.62796
H         31.96923       67.29593       18.94429
H         34.34898       69.17191       19.14903
H         32.95399       70.66286       17.61771
H         31.71677       69.38392       17.53516
H         34.37922       69.39977       16.55943
N         32.78180       71.06208       20.35713
C         32.24014       71.82424       21.47938
C         30.72447       71.81562       21.50089
O         30.15072       71.46459       22.52297
C         32.73803       73.27198       21.41559
H         33.38316       71.55236       19.67835
H         32.62250       71.39025       22.43070
H         32.39895       73.76904       20.48185
H         32.35812       73.84450       22.28861
H         33.84845       73.28809       21.44423
N         30.01119       72.19274       20.40330
C         28.55201       72.24748       20.36354
C         27.93082       70.92955       20.78001
O         27.03856       70.93822       21.61652
C         28.07511       72.62930       18.95795
H         30.53614       72.44299       19.55025
H         28.19479       73.04074       21.05835
H         28.39820       71.87344       18.21059
H         26.96643       72.70530       18.93758
H         28.49438       73.61810       18.67279
N         28.38793       69.75231       20.26986
C         27.84453       68.45210       20.65699
C         27.92281       68.26868       22.16409
O         26.89563       68.02625       22.78343
C         28.56910       67.29858       19.92557
C         28.39113       67.39801       18.39945
C         28.97858       66.21722       17.68799
O         30.28734       65.93302       17.79498
O         28.27118       65.52245       16.98051
H         29.17431       69.79298       19.60545
H         26.77254       68.40532       20.35972
H         28.12001       66.33964       20.26685
H         29.65169       67.29130       20.18357
H         28.88143       68.31043       18.00454
H         27.30576       67.45433       18.16382
N         29.09905       68.42175       22.82884
C         29.19388       68.31994       24.26886
H         30.23440       68.53260       24.59565
H         28.51984       69.06380       24.74688
H         28.91406       67.29791       24.59847
H         29.94865       68.65382       22.30255
Ca        31.50198       63.74325       15.98923
O         33.55402       66.14444       16.14332
H         33.74387       66.24895       15.17744
H         32.62315       66.46064       16.25150
O         30.57128       67.00099       14.71591
H         30.26145       67.88569       15.03083
H         30.73290       67.12553       13.74702

Ca 1.0



