%chk=holoCaM.loop1.water2.frame17.chk
%nprocshared=20
%mem=10GB
%nosave
#b3lyp/svp scf=(tight,noincore,xqc) Test 
#IOP(5/87=12) Density=Current Pop=(MK,readradii) iop(6/33=2) iop(6/42=6)

holoCaM.loop1.water2.frame17 

   0  1 
C         78.88460       19.20158       12.49181
C         79.66893       18.29982       11.59369
O         80.55878       17.61485       12.07140
H         77.80868       18.94013       12.45090
H         79.24694       19.11759       13.53907
H         79.02685       20.25117       12.15579
N         79.40828       18.26689       10.25848
C         80.23250       17.51686        9.32086
C         81.64396       18.08469        9.35624
O         81.81281       19.27939        9.15532
C         79.63432       17.59083        7.90406
C         80.50409       16.87404        6.91581
O         80.96700       17.47403        5.96005
O         80.80710       15.57801        7.10204
H         78.62317       18.83144        9.89766
H         80.23875       16.44156        9.61536
H         79.51359       18.65004        7.58976
H         78.63066       17.10963        7.90986
N         82.70152       17.26917        9.61939
C         84.07262       17.73583        9.78590
C         84.97922       17.26864        8.65503
O         86.17535       17.51107        8.75563
C         84.66164       17.23215       11.13231
C         83.82056       17.57970       12.36722
C         84.56005       17.19971       13.66037
C         83.70738       17.48862       14.90444
N         84.45189       17.19256       16.12950
H         82.51821       16.26637        9.71072
H         84.10785       18.84712        9.79847
H         85.66747       17.69174       11.25490
H         84.79168       16.12838       11.10299
H         82.87264       17.01132       12.31571
H         83.60500       18.67019       12.38307
H         85.50114       17.78968       13.71977
H         84.81844       16.11793       13.64534
H         82.78513       16.86593       14.87285
H         83.40848       18.56026       14.91417
H         84.74497       16.18872       16.14433
H         85.29673       17.80674       16.19180
H         83.84096       17.37952       16.95735
N         84.51378       16.62968        7.53665
C         85.43293       16.14905        6.50372
C         84.76111       15.94448        5.14460
O         85.00234       14.94734        4.47788
C         86.17652       14.88835        7.01487
C         85.22183       13.77764        7.38150
O         85.65031       12.73468        7.84687
O         83.89286       13.94657        7.22734
H         83.50052       16.50349        7.40127
H         86.16861       16.95888        6.30154
H         86.75613       15.14805        7.92613
H         86.89724       14.52901        6.24967
N         83.96842       16.92802        4.64264
C         83.49588       17.01212        3.26898
C         82.74095       15.82075        2.72395
O         83.06343       15.39182        1.62452
H         83.74588       17.73048        5.25126
H         84.36365       17.21169        2.60357
H         82.82284       17.89371        3.19956
N         81.70066       15.26137        3.39509
C         80.83054       14.24509        2.80256
C         79.34880       14.53020        3.06132
O         78.52650       13.71728        2.66182
C         81.28189       12.82416        3.20830
C         81.27933       12.50633        4.67159
O         81.65542       11.40630        5.04130
O         80.88270       13.40604        5.58252
H         81.53011       15.56674        4.36184
H         80.94091       14.24980        1.69477
H         82.32159       12.68255        2.84080
H         80.63788       12.08018        2.68931
N         78.92144       15.67640        3.67837
C         77.52064       15.98761        3.91808
C         76.85737       15.11184        4.96266
O         75.67137       15.31135        5.18949
H         79.59377       16.40476        3.94606
H         76.96412       15.92037        2.95760
H         77.44209       17.03585        4.28104
N         77.52764       14.12906        5.63422
C         76.89533       13.24150        6.60496
C         77.60646       13.29643        7.95436
O         78.64992       13.92659        8.06889
C         76.85819       11.79783        6.04163
C         76.05100       11.70684        4.73649
O         78.15380       11.29163        5.84465
H         78.52097       13.97449        5.43694
H         75.84453       13.56116        6.78226
H         76.34961       11.14053        6.77830
H         78.54424       11.72382        5.04164
H         76.02973       10.65457        4.38252
H         75.00927       12.05191        4.90062
H         76.51074       12.32957        3.93968
N         77.04560       12.69547        9.04348
C         77.59949       12.74575       10.39769
C         77.70303       11.32522       10.95578
O         76.72913       10.58721       10.88017
C         76.71144       13.67031       11.28976
C         76.69610       15.10736       10.68595
C         77.24004       13.69814       12.73911
C         75.87237       16.13023       11.47076
H         76.13007       12.23340        8.92227
H         78.61228       13.20568       10.39907
H         75.67251       13.27185       11.30997
H         76.26548       15.06661        9.66300
H         77.73660       15.49416       10.60685
H         76.57997       14.30100       13.39423
H         77.25558       12.67966       13.17706
H         78.26416       14.12378       12.77259
H         76.30409       16.31172       12.47596
H         75.88784       17.10124       10.93054
H         74.82009       15.79175       11.56798
N         78.83940       10.90043       11.58755
C         79.01743        9.55725       12.14804
C         78.98528        9.57742       13.67377
O         78.88463       10.63867       14.27123
C         80.37530        8.94001       11.68733
C         80.51859        8.79554       10.17711
O         81.46175        9.66476       12.20486
H         79.59928       11.57853       11.71520
H         78.18810        8.89472       11.81711
H         80.45803        7.90910       12.08739
H         81.57568       10.49244       11.67136
H         81.49114        8.30756        9.94834
H         79.69946        8.17644        9.75936
H         80.51780        9.79833        9.71890
N         79.09294        8.40253       14.36253
C         79.21369        8.28543       15.81954
C         80.45478        9.01219       16.31202
O         80.38928        9.69056       17.32619
C         79.29192        6.79914       16.24863
C         77.97852        6.06103       15.95925
O         80.35881        6.16236       15.59063
H         79.13402        7.53534       13.80777
H         78.32137        8.73000       16.31577
H         79.46078        6.77298       17.35101
H         80.54225        5.31983       16.08172
H         77.14234        6.54834       16.50463
H         77.74300        6.05399       14.87527
H         78.05487        5.00964       16.30743
N         81.60753        8.95317       15.59128
C         82.80762        9.73730       15.87730
C         82.45608       11.21839       15.95862
O         82.76580       11.85146       16.95826
C         83.83816        9.44029       14.75366
C         85.09673       10.31823       14.70655
C         85.98446        9.85789       13.53309
C         87.15042       10.81567       13.26514
N         87.94922       10.35186       12.12828
H         81.60215        8.36711       14.74198
H         83.25094        9.42912       16.84993
H         83.33909        9.57728       13.77425
H         84.13307        8.37028       14.83702
H         85.66341       10.26246       15.66037
H         84.78267       11.37030       14.53093
H         85.37285        9.81279       12.60458
H         86.37336        8.83704       13.74628
H         87.79632       10.89456       14.16633
H         86.74151       11.82412       13.03092
H         88.71003       11.04247       11.93561
H         88.37991        9.42366       12.34503
H         87.35078       10.26788       11.27367
N         81.81210       11.83236       14.93168
C         81.53099       13.26785       14.89125
C         80.33132       13.66509       15.75252
O         80.04936       14.85230       15.83669
C         81.31563       13.69958       13.42476
C         82.54796       13.33358       12.56963
C         82.33147       13.57549       11.11394
O         81.28026       13.02338       10.48178
O         83.16163       14.19380       10.47507
H         81.57092       11.25465       14.11669
H         82.42772       13.81705       15.25543
H         81.12956       14.79458       13.35859
H         80.42002       13.17373       13.03977
H         82.77738       12.25662       12.65102
H         83.44036       13.89059       12.92985
N         79.57765       12.73925       16.41335
C         78.43747       13.05746       17.24966
H         77.53479       12.54734       16.85062
H         78.62482       12.68375       18.27912
H         78.23573       14.14683       17.30117
H         79.80584       11.74791       16.32655
Ca        82.33676       12.48192        7.89871
O         83.53154       10.16642        9.02263
H         83.36426        9.28404        8.60804
H         84.21315       10.58367        8.43880
O         80.24866       10.66751        7.42878
H         80.31624        9.69060        7.28561
H         79.44422       10.79037        7.99342

Ca 1.0



