%chk=holoCaM.loop4.water3.frame316.chk
%nprocshared=20
%mem=10GB
%nosave
#b3lyp/svp scf=(tight,noincore,xqc) Test 
#IOP(5/87=12) Density=Current Pop=(MK,readradii) iop(6/33=2) iop(6/42=6)

holoCaM.loop4.water3.frame316 

   -3  1 
C         15.99907       30.78667       90.16393
C         16.30475       32.13867       90.73455
O         15.39901       32.95344       90.83325
H         14.92404       30.71166       89.88898
H         16.61322       30.60843       89.25783
H         16.22225       30.00789       90.92304
N         17.57331       32.45030       91.13128
C         17.91997       33.73198       91.73886
C         19.42808       33.87196       91.92198
O         20.03287       33.04033       92.58476
C         17.21280       33.89291       93.10029
C         17.60092       35.18570       93.74432
O         18.17669       35.19365       94.96107
O         17.43111       36.23198       93.14548
H         18.31422       31.74649       90.98753
H         17.57271       34.54230       91.06334
H         17.47982       33.05075       93.77403
H         16.11185       33.89611       92.96765
N         20.08566       34.93391       91.36527
C         21.52551       35.15343       91.44937
C         21.90582       36.49489       92.10392
O         23.09135       36.68097       92.33753
C         22.16005       35.00457       90.02781
C         21.61344       36.06083       89.02195
C         21.93424       33.56810       89.51378
C         22.25666       35.99265       87.63438
H         19.54029       35.60675       90.82496
H         21.97631       34.37154       92.09941
H         23.25841       35.15052       90.12774
H         21.80356       37.07724       89.42813
H         20.51981       35.94227       88.87964
H         22.47351       33.38895       88.56247
H         22.32793       32.83359       90.24784
H         20.85338       33.36651       89.35267
H         21.84495       36.80484       86.99798
H         23.35670       36.11850       87.70761
H         22.02440       35.03352       87.12769
N         20.99537       37.47442       92.41139
C         21.36191       38.75802       93.04199
C         20.57265       39.06892       94.31697
O         20.91956       40.04010       94.97671
C         21.19536       39.92638       92.04044
C         19.85889       39.87351       91.36575
O         18.72420       39.79791       92.08218
O         19.80835       39.70837       90.15691
H         20.01167       37.33076       92.15070
H         22.43004       38.74159       93.34861
H         21.97744       39.83284       91.25521
H         21.34363       40.90541       92.54543
N         19.50505       38.32982       94.72678
C         18.76078       38.60311       95.94581
C         18.13122       39.98203       95.97462
O         18.44078       40.73340       96.88863
H         19.20683       37.52340       94.17282
H         19.44544       38.48848       96.81539
H         17.95007       37.85114       96.05589
N         17.21609       40.37179       95.03553
C         16.52494       41.66864       95.08964
C         15.01034       41.54387       95.26968
O         14.38639       42.54577       95.59297
C         16.87321       42.55616       93.87375
C         16.47314       42.01519       92.52391
O         15.90715       40.80306       92.38450
O         16.67963       42.69063       91.52906
H         17.00412       39.71236       94.27472
H         16.87418       42.22427       95.98690
H         17.97029       42.73086       93.85959
H         16.37276       43.54040       94.00780
N         14.34678       40.37084       95.07165
C         12.92480       40.17776       95.30950
C         12.13046       39.93599       94.03801
O         10.99679       39.49621       94.14763
H         14.86528       39.55713       94.73856
H         12.46159       41.03700       95.83971
H         12.82671       39.29255       95.97585
N         12.61928       40.27736       92.80841
C         11.86968       40.12780       91.55921
C         12.64494       39.29041       90.55709
O         13.73986       38.84625       90.86747
C         11.53735       41.52068       90.99282
C         10.50196       42.22741       91.88157
C         10.07729       43.54843       91.29823
N         10.19568       44.69059       92.01291
O          9.59725       43.58562       90.17459
H         13.54207       40.71939       92.74833
H         10.91409       39.58606       91.73037
H         11.08369       41.41353       89.98611
H         12.46414       42.12865       90.89151
H         10.90994       42.36712       92.90567
H          9.59653       41.58571       91.95372
H         10.57867       44.67975       92.96922
H          9.88747       45.58905       91.61303
N         12.08752       38.98695       89.33878
C         12.69494       38.04532       88.40692
C         13.00317       38.71130       87.05932
O         12.09163       39.01448       86.30490
C         11.74937       36.81603       88.23506
C         12.38829       35.71842       87.37595
C         11.35010       36.20743       89.59162
H         11.16305       39.36756       89.09492
H         13.64153       37.67000       88.83853
H         10.81337       37.15448       87.73815
H         11.68196       34.87107       87.24441
H         12.63526       36.10537       86.37103
H         13.30835       35.33431       87.86366
H         10.65391       35.35518       89.43961
H         12.24078       35.84100       90.13824
H         10.82350       36.95187       90.22472
N         14.30071       38.93704       86.69803
C         14.76519       39.41384       85.39213
C         14.48410       38.37015       84.30813
O         14.01962       37.28529       84.62314
C         16.29747       39.68729       85.51704
C         17.01337       40.19231       84.29026
N         16.65469       41.35341       83.69768
O         17.94940       39.55006       83.83797
H         15.01110       38.76663       87.40902
H         14.24131       40.36243       85.14645
H         16.79565       38.74680       85.84539
H         16.44917       40.44713       86.31153
H         15.87438       41.91460       84.06593
H         17.15743       41.68569       82.86093
N         14.75092       38.63158       82.99708
C         14.59701       37.64771       81.93064
C         15.55512       36.49242       82.14829
O         15.12448       35.34763       82.14154
C         14.89720       38.23600       80.52726
C         13.85838       39.21451       80.01969
C         12.96586       38.80476       79.01094
C         13.77384       40.53399       80.50186
C         12.00523       39.68461       78.50838
C         12.81451       41.41424       79.99244
C         11.92543       40.99116       78.99525
O         10.99739       41.83063       78.49424
H         15.10071       39.55999       82.75224
H         13.55175       37.26349       81.90994
H         14.89775       37.36646       79.83105
H         15.91290       38.68417       80.46361
H         13.00692       37.79812       78.61301
H         14.45213       40.90676       81.25153
H         11.32455       39.34908       77.73618
H         12.76802       42.42781       80.37019
H         10.91346       42.74526       78.79885
N         16.88754       36.73500       82.31334
C         17.90352       35.68685       82.39499
C         17.75759       34.76852       83.61081
O         18.52601       33.82086       83.70606
C         19.33506       36.28717       82.36562
C         19.61100       37.25136       81.19063
C         19.26604       36.65791       79.85405
O         18.42724       37.19421       79.14660
O         19.87450       35.53476       79.42996
H         17.18426       37.71732       82.31807
H         17.79520       35.05389       81.48669
H         20.05944       35.44502       82.29829
H         19.53696       36.83569       83.31174
H         20.68631       37.52964       81.19995
H         19.03983       38.19293       81.32598
N         16.78003       34.94310       84.54679
C         16.53568       34.01757       85.64497
C         15.32591       33.17854       85.29043
O         15.43127       31.96042       85.26561
C         16.27275       34.78402       86.95313
C         17.41195       35.73018       87.33132
C         17.04429       36.52077       88.54829
O         17.86748       36.60029       89.58940
O         16.01314       37.15422       88.58235
H         16.12313       35.72521       84.45548
H         17.40500       33.33987       85.80197
H         16.09207       34.06366       87.78203
H         15.36025       35.40162       86.81769
H         17.56984       36.45417       86.50428
H         18.35934       35.17412       87.50049
N         14.14354       33.77272       84.96652
C         12.97254       33.02146       84.58011
H         12.14412       33.72091       84.33501
H         13.19631       32.41115       83.67957
H         12.65170       32.36371       85.41384
H         14.07117       34.79761       84.97000
Ca        17.48547       38.21566       91.10729
O         14.86861       35.99637       91.24188
H         14.61380       35.46468       90.44756
H         14.01270       36.17376       91.70651
O         16.60250       40.34894       88.96178
H         16.86906       40.65000       89.86427
H         17.43734       39.99144       88.56777
O         15.13336       37.39939       93.76205
H         15.73848       37.44540       94.54535
H         14.25529       37.15140       94.14207

Ca 1.0



