%chk=holoCaM-CaMKII.loop4.water2.frame25.chk
%nprocshared=20
%mem=10GB
%nosave
#b3lyp/svp scf=(tight,noincore,xqc) Test 
#IOP(5/87=12) Density=Current Pop=(MK,readradii) iop(6/33=2) iop(6/42=6)

holoCaM-CaMKII.loop4.water2.frame25 

   -3  1 
C         37.61870       66.78482       41.61742
C         38.10122       67.98009       42.38729
O         39.20481       68.44964       42.15735
H         36.67973       67.03922       41.08102
H         38.37696       66.44646       40.88158
H         37.41021       65.95303       42.32491
N         37.29489       68.52396       43.33346
C         37.65471       69.66381       44.17293
C         38.84032       69.31999       45.06749
O         38.75486       68.38240       45.84786
C         36.41936       70.03174       45.00860
C         36.58938       71.10515       46.04263
O         36.88965       72.39032       45.75258
O         36.31840       70.82301       47.19809
H         36.36353       68.09285       43.45489
H         37.89882       70.53699       43.52675
H         36.07850       69.11363       45.53946
H         35.59950       70.33141       44.32293
N         39.97717       70.06955       45.00476
C         41.16246       69.86824       45.83464
C         41.41122       71.07088       46.75719
O         42.43845       71.08264       47.42098
C         42.41570       69.52181       44.95763
C         42.80815       70.64192       43.96025
C         42.18804       68.18606       44.22486
C         44.16284       70.41572       43.27942
H         39.99576       70.84770       44.34217
H         41.01910       69.00230       46.51688
H         43.26693       69.37462       45.65853
H         42.87785       71.61008       44.50060
H         42.04036       70.71828       43.16866
H         41.36695       68.27995       43.48676
H         43.09990       67.85034       43.69261
H         41.92379       67.38890       44.95048
H         44.16592       69.49865       42.65706
H         44.38685       71.27167       42.60738
H         44.96913       70.34659       44.03995
N         40.49430       72.07818       46.90775
C         40.67787       73.22986       47.79975
C         39.67142       73.23530       48.94898
O         39.75094       74.12065       49.79005
C         40.42242       74.52489       47.00975
C         41.21470       74.62877       45.74453
O         40.59174       74.43853       44.56252
O         42.41359       74.85290       45.77788
H         39.60745       72.02553       46.39050
H         41.70361       73.22915       48.22836
H         40.57790       75.43415       47.63161
H         39.35165       74.50746       46.73468
N         38.66016       72.32716       49.02102
C         37.60260       72.37709       50.01368
C         36.73889       73.61772       49.87974
O         36.44587       74.25563       50.88002
H         38.59510       71.57203       48.32565
H         38.01214       72.27086       51.04051
H         36.93042       71.51020       49.82896
N         36.24701       73.97036       48.66025
C         35.22289       74.98225       48.42399
C         33.98268       74.33593       47.78717
O         33.05754       75.05491       47.43550
C         35.78594       76.16160       47.59234
C         36.41006       75.79707       46.27649
O         35.76226       75.23538       45.41443
O         37.68098       76.15469       46.01836
H         36.57646       73.44524       47.84416
H         34.88133       75.43422       49.38113
H         36.55864       76.67996       48.20052
H         34.96909       76.89230       47.40405
N         33.86541       72.97518       47.67418
C         32.69272       72.28168       47.16528
C         32.47467       72.37608       45.66609
O         31.51696       71.77333       45.20527
H         34.60130       72.36934       48.05396
H         31.79106       72.63770       47.70943
H         32.81031       71.19814       47.38915
N         33.28837       73.09846       44.84114
C         33.06775       73.22076       43.40005
C         34.30964       72.84825       42.59813
O         35.35542       72.57413       43.16424
C         32.63795       74.66281       43.07236
C         31.25640       74.98843       43.66355
C         30.78500       76.38110       43.32213
N         29.55667       76.78732       43.71545
O         31.49732       77.14558       42.68652
H         34.07044       73.61679       45.24571
H         32.25937       72.53302       43.06726
H         32.55955       74.79128       41.97208
H         33.39996       75.37404       43.45608
H         31.27550       74.88232       44.76918
H         30.51937       74.26556       43.24949
H         28.93801       76.15364       44.24262
H         29.21906       77.73317       43.48383
N         34.22459       72.80068       41.23538
C         35.30725       72.40698       40.33776
C         35.56508       73.54451       39.35140
O         34.61623       73.99201       38.72293
C         34.88128       71.11136       39.58247
C         35.97449       70.63152       38.61368
C         34.55601       69.97296       40.56670
H         33.31489       73.01186       40.79861
H         36.23838       72.17876       40.90177
H         33.96186       71.32105       38.99053
H         35.63547       69.72123       38.07399
H         36.19581       71.40537       37.85146
H         36.90620       70.38773       39.16605
H         35.44405       69.71985       41.18468
H         33.72073       70.25675       41.24076
H         34.23748       69.06442       40.01117
N         36.82989       74.01997       39.11972
C         37.12717       75.06943       38.13897
C         37.75158       74.43490       36.89567
O         37.93493       73.22445       36.90381
C         37.94736       76.20353       38.80811
C         39.44554       76.01757       38.78474
N         40.15242       75.72234       39.89479
O         40.04004       76.19440       37.73728
H         37.61920       73.57835       39.60023
H         36.16836       75.52777       37.81584
H         37.57497       76.33629       39.84820
H         37.75502       77.16575       38.28727
H         39.68287       75.55990       40.79139
H         41.17930       75.62991       39.84294
N         38.03123       75.14677       35.75815
C         38.40878       74.44503       34.52601
C         39.71123       73.66441       34.65003
O         39.83521       72.60971       34.04563
C         38.38310       75.31271       33.24148
C         39.74385       75.78182       32.76286
C         40.33293       75.11641       31.66898
C         40.44805       76.82373       33.38566
C         41.59746       75.47468       31.21076
C         41.71729       77.19241       32.91154
C         42.29555       76.51323       31.82559
O         43.51880       76.84352       31.36512
H         37.86132       76.16334       35.74146
H         37.58362       73.70988       34.37491
H         37.62406       76.12310       33.28084
H         38.01018       74.62115       32.45372
H         39.82096       74.29760       31.17771
H         40.01922       77.34768       34.23004
H         42.03428       74.93736       30.37773
H         42.25594       77.99890       33.39186
H         44.04510       77.55382       31.75662
N         40.74499       74.16962       35.37738
C         42.00642       73.47559       35.60659
C         41.75217       72.18411       36.36072
O         42.22810       71.14222       35.93233
C         43.00032       74.36244       36.39883
C         43.38293       75.63156       35.61525
C         44.45113       76.41790       36.31858
O         45.52192       76.62343       35.76878
O         44.22884       76.91746       37.54907
H         40.61595       75.09315       35.79844
H         42.49206       73.24137       34.63311
H         43.92875       73.77216       36.56885
H         42.57978       74.64113       37.39129
H         42.50014       76.28895       35.48806
H         43.75395       75.33991       34.60786
N         40.97199       72.17833       37.48091
C         40.68430       70.96680       38.25508
C         39.91207       69.91785       37.45435
O         39.76096       68.80965       37.94959
C         39.89846       71.30856       39.54091
C         40.67602       72.29396       40.42531
C         39.93102       72.66308       41.66396
O         40.53232       72.51648       42.84576
O         38.81955       73.16024       41.61458
H         40.57349       73.07880       37.78290
H         41.65766       70.51960       38.55586
H         39.70498       70.38095       40.12425
H         38.92056       71.74836       39.25660
H         40.87477       73.23209       39.88509
H         41.65500       71.84898       40.70685
N         39.40297       70.18564       36.21803
C         38.73438       69.21374       35.38035
H         37.70863       69.56918       35.15034
H         39.29713       69.11739       34.42633
H         38.67548       68.21294       35.85368
H         39.48662       71.12571       35.82997
Ca        38.48721       73.52987       44.60676
O         39.10251       76.57019       43.02742
H         38.80850       77.32216       42.45434
H         40.08876       76.56239       42.93589
O         36.04735       76.12044       42.41660
H         35.52596       76.43626       43.19525
H         36.00822       76.87799       41.78140

Ca 1.0



