%chk=holoCaM-CaMKII.loop3.water1.frame407.chk
%nprocshared=20
%mem=10GB
%nosave
#b3lyp/svp scf=(tight,noincore,xqc) Test 
#IOP(5/87=12) Density=Current Pop=(MK,readradii) iop(6/33=2) iop(6/42=6)

holoCaM-CaMKII.loop3.water1.frame407 

   0  1 
C         33.62069       43.66388       47.80547
C         32.35278       42.90410       48.05115
O         32.39278       41.68792       48.17525
H         34.49235       42.97716       47.76394
H         33.54578       44.21523       46.84544
H         33.77874       44.39020       48.63120
N         31.17593       43.57751       48.16090
C         29.91396       42.91790       48.46217
C         29.51898       41.97968       47.33051
O         29.37526       42.42324       46.19987
C         28.83035       43.97900       48.75974
C         27.56204       43.41082       49.33366
O         26.68056       44.16544       49.70798
O         27.39609       42.08296       49.46444
H         31.19545       44.60612       48.07456
H         30.05825       42.34127       49.39957
H         28.60244       44.57261       47.84803
H         29.23711       44.66514       49.53434
N         29.33979       40.65246       47.58324
C         29.01324       39.65353       46.56984
C         27.73191       40.00177       45.83024
O         27.75261       40.01345       44.60726
C         28.90879       38.25746       47.23404
C         28.75252       37.11023       46.21954
C         28.75441       35.74341       46.92436
C         28.64322       34.59299       45.91161
N         28.66327       33.29341       46.58457
H         29.46270       40.33099       48.55443
H         29.85271       39.60585       45.83939
H         28.05927       38.24432       47.95111
H         29.84971       38.07588       47.80042
H         29.60452       37.14309       45.50530
H         27.80464       37.23220       45.65200
H         27.90199       35.69143       47.63656
H         29.70210       35.62635       47.49547
H         29.49492       34.64384       45.19684
H         27.69629       34.69296       45.33620
H         28.58778       32.53499       45.86827
H         29.56037       33.17186       47.10872
H         27.85574       33.21565       47.24456
N         26.58476       40.30382       46.50551
C         25.30466       40.55455       45.84089
C         24.82424       41.99764       45.95764
O         23.79104       42.30482       45.37823
C         24.25443       39.56744       46.38935
C         24.02251       39.72581       47.86867
O         23.57378       40.76838       48.31554
O         24.30974       38.71242       48.70732
H         26.61974       40.34205       47.53528
H         25.40031       40.36512       44.74943
H         24.61300       38.53422       46.19207
H         23.28735       39.70109       45.85873
N         25.51262       42.94391       46.65461
C         25.09827       44.33600       46.72132
C         23.73468       44.51477       47.35245
O         22.85713       45.04825       46.68808
H         26.38736       42.68729       47.12437
H         25.09325       44.75727       45.69133
H         25.83833       44.91705       47.31119
N         23.49066       44.12534       48.63907
C         22.20590       44.34339       49.30624
C         22.31898       45.27456       50.50923
O         21.29882       45.50080       51.14709
C         21.56396       43.00550       49.74760
C         22.25577       42.29606       50.89242
N         21.67071       41.22031       51.46296
O         23.31659       42.70406       51.33718
H         24.25083       43.67466       49.16685
H         21.48790       44.81653       48.60132
H         21.46594       42.32063       48.87880
H         20.53525       43.23879       50.09981
H         20.76312       40.87112       51.12392
H         22.11217       40.75491       52.26772
N         23.50098       45.84526       50.89137
C         23.62053       46.67646       52.07786
C         24.72443       46.17823       52.97948
O         25.62829       46.94985       53.26843
H         24.35090       45.70604       50.32753
H         22.67473       46.70011       52.66126
H         23.84558       47.71888       51.76506
N         24.71526       44.90487       53.47291
C         25.72586       44.40053       54.40554
C         26.52503       43.25704       53.80900
O         26.16768       42.76849       52.74631
C         25.02533       43.94846       55.71056
C         24.14061       42.72921       55.50893
C         24.69967       41.44057       55.55967
C         22.76417       42.86016       55.25991
C         23.91065       40.30769       55.35906
C         21.97201       41.72312       55.05399
C         22.54167       40.44489       55.10225
O         21.76793       39.35930       54.89916
H         23.94994       44.27748       53.18910
H         26.44423       45.21162       54.65255
H         24.42133       44.79950       56.09413
H         25.77290       43.71871       56.50071
H         25.74890       41.31073       55.75771
H         22.30747       43.84022       55.21059
H         24.36653       39.32576       55.40203
H         20.91459       41.83487       54.85170
H         22.12777       38.46054       54.92139
N         27.62163       42.76724       54.46345
C         28.34237       41.57026       54.02970
C         28.42414       40.55020       55.16014
O         28.13339       40.87788       56.30314
C         29.75068       41.90822       53.46053
C         30.66693       42.59219       54.50547
C         29.59672       42.76765       52.19700
C         32.11054       42.75863       54.02134
H         27.93947       43.24857       55.31885
H         27.76833       41.07693       53.21561
H         30.22477       40.94920       53.15306
H         30.70696       41.96515       55.42085
H         30.25847       43.58827       54.78125
H         28.94751       42.23436       51.47811
H         29.13725       43.75131       52.43070
H         30.56887       42.93708       51.69448
H         32.54566       41.76781       53.76892
H         32.17611       43.42296       53.13661
H         32.71994       43.21680       54.82798
N         28.78769       39.26655       54.88716
C         28.86505       38.20375       55.88544
C         30.24037       37.55431       55.86970
O         31.08719       37.96364       55.09273
C         27.77132       37.16200       55.58737
O         27.98358       36.57383       54.33334
H         28.97877       39.01650       53.90792
H         28.67792       38.60420       56.90539
H         26.77755       37.66080       55.59699
H         27.77652       36.38105       56.38033
H         27.45620       35.73335       54.32046
N         30.52644       36.51404       56.70131
C         31.78477       35.77185       56.66499
C         31.95756       35.06042       55.33180
O         33.00361       35.19888       54.71448
C         31.81730       34.73611       57.79383
H         29.80670       36.22212       57.38006
H         32.63861       36.46502       56.83926
H         31.72749       35.24941       58.77498
H         30.98519       34.00724       57.69353
H         32.78260       34.18534       57.77760
N         30.94814       34.29464       54.82366
C         31.02164       33.56931       53.55489
C         31.42645       34.48136       52.41338
O         32.36352       34.16201       51.69522
C         29.66014       32.93121       53.24087
H         30.06776       34.24808       55.36054
H         31.76949       32.75008       53.63964
H         29.36928       32.23090       54.05242
H         28.87070       33.70874       53.14721
H         29.71029       32.36120       52.28846
N         30.77833       35.65931       52.22056
C         31.11696       36.61781       51.17171
C         32.57394       37.03405       51.27666
O         33.29416       36.93652       50.29293
C         30.21657       37.86350       51.28423
C         28.73237       37.52981       51.04753
C         27.87875       38.74051       51.25103
O         26.90250       38.73394       52.17810
O         28.06808       39.73907       50.58262
H         30.03136       35.89463       52.88843
H         30.94651       36.16126       50.17046
H         30.53097       38.61562       50.52628
H         30.35364       38.31377       52.28873
H         28.37663       36.74506       51.74219
H         28.59894       37.15019       50.01395
N         33.08105       37.48495       52.45414
C         34.45864       37.89039       52.61313
H         35.13738       37.05473       52.34093
H         34.66777       38.77187       51.97222
H         34.64718       38.16723       53.67319
H         32.47291       37.51921       53.27649
Ca        25.55095       41.19041       50.39781
O         23.93193       39.01804       51.77047
H         23.09717       38.72772       51.32416
H         24.18691       38.25230       52.34232

Ca 1.0



