%chk=holoCaM-CaMKII.loop3.water1.frame456.chk
%nprocshared=20
%mem=10GB
%nosave
#b3lyp/svp scf=(tight,noincore,xqc) Test 
#IOP(5/87=12) Density=Current Pop=(MK,readradii) iop(6/33=2) iop(6/42=6)

holoCaM-CaMKII.loop3.water1.frame456 

   0  1 
C         54.77392       57.17892       30.84472
C         53.85800       57.92853       29.92697
O         54.30251       58.32827       28.85979
H         55.61651       57.83413       31.14964
H         54.24100       56.83087       31.75374
H         55.17633       56.29381       30.30874
N         52.56503       58.17754       30.28321
C         51.62923       58.87215       29.41368
C         51.38746       60.26453       29.98078
O         51.00285       60.38674       31.13577
C         50.33916       58.03908       29.26002
C         49.55199       58.52293       28.07737
O         49.21727       59.81609       28.01376
O         49.28520       57.77074       27.15644
H         52.23471       57.88211       31.21530
H         52.07362       58.97044       28.39903
H         49.73812       58.09185       30.19442
H         50.59999       56.97394       29.07653
N         51.66734       61.36518       29.22564
C         51.68140       62.73165       29.74617
C         50.33626       63.18014       30.31422
O         50.32684       64.05155       31.17189
C         52.17498       63.69782       28.63721
C         52.71175       65.03430       29.16934
C         53.23799       65.91038       28.01848
C         54.01984       67.11838       28.55479
N         54.50276       67.96399       27.46253
H         51.97532       61.21181       28.25601
H         52.43059       62.72815       30.56919
H         51.37152       63.84812       27.88123
H         53.04003       63.22048       28.12446
H         53.55481       64.79993       29.85619
H         51.93485       65.59214       29.73316
H         52.38172       66.24705       27.39310
H         53.92981       65.31831       27.37887
H         54.89354       66.74767       29.13762
H         53.37691       67.72214       29.23154
H         55.09479       67.40749       26.80346
H         53.69313       68.37805       26.94632
H         55.08206       68.73850       27.86057
N         49.16226       62.66806       29.84262
C         47.83504       63.07785       30.31031
C         46.97662       61.88751       30.76665
O         45.85951       62.12057       31.20811
C         47.14003       63.86648       29.17077
C         46.97944       63.00035       27.95898
O         47.78885       63.15879       26.89770
O         46.27031       62.01151       28.01959
H         49.21051       61.99659       29.06795
H         47.93024       63.76643       31.17793
H         47.78856       64.73211       28.91538
H         46.14895       64.25607       29.48667
N         47.40953       60.59327       30.67568
C         46.61622       59.44371       31.07901
C         45.34851       59.27676       30.26793
O         44.28439       59.26959       30.87110
H         48.35315       60.38914       30.32871
H         46.36775       59.53391       32.16038
H         47.21948       58.51886       30.95092
N         45.37914       59.09934       28.90890
C         44.16205       58.85190       28.12351
C         44.17948       57.51841       27.38435
O         43.14218       57.16601       26.83738
C         43.88770       59.99194       27.12058
C         44.80375       59.94667       25.92090
N         44.30017       59.79415       24.67600
O         46.00906       60.02325       26.07038
H         46.29217       59.13706       28.43303
H         43.29158       58.82351       28.81286
H         43.95814       60.97220       27.63561
H         42.84129       59.89128       26.75877
H         43.28628       59.71555       24.51172
H         44.93549       59.74933       23.87104
N         45.30180       56.74576       27.27465
C         45.31450       55.47938       26.55955
C         46.24131       55.45431       25.35950
O         46.31993       54.40069       24.74700
H         46.18572       57.04645       27.70959
H         44.30295       55.20611       26.19357
H         45.63683       54.68700       27.26954
N         47.00020       56.52654       24.97158
C         47.97376       56.40657       23.88356
C         49.05967       57.45734       23.94067
O         48.88659       58.49667       24.55731
C         47.31940       56.31953       22.47787
C         46.44050       57.49075       22.05449
C         46.94953       58.79681       21.89965
C         45.08373       57.26061       21.75375
C         46.11933       59.83853       21.46074
C         44.25892       58.30085       21.31343
C         44.77381       59.59458       21.16475
O         43.98827       60.60616       20.74020
H         46.96163       57.39384       25.52203
H         48.53171       55.46202       24.07191
H         46.71509       55.38987       22.44737
H         48.11774       56.19738       21.71411
H         47.98645       59.02008       22.10126
H         44.66011       56.26899       21.84704
H         46.52160       60.83796       21.34718
H         43.22023       58.09796       21.08269
H         43.05324       60.47736       20.52318
N         50.25272       57.19688       23.32634
C         51.37177       58.12718       23.33753
C         51.73158       58.52897       21.92312
O         51.33684       57.87726       20.96864
C         52.61598       57.54188       24.08946
C         53.15362       56.24054       23.42740
C         52.28294       57.32665       25.57601
C         54.43993       55.70098       24.06256
H         50.37035       56.29899       22.83610
H         51.07024       59.05555       23.85862
H         53.42599       58.30361       24.04724
H         53.38579       56.44834       22.36122
H         52.38778       55.43787       23.46839
H         51.49912       56.55055       25.70004
H         53.18170       57.02506       26.15173
H         51.92593       58.27580       26.02367
H         55.24335       56.46694       24.02888
H         54.27491       55.38279       25.11188
H         54.78150       54.80651       23.49868
N         52.50988       59.62587       21.74312
C         53.04133       60.06289       20.46341
C         54.55659       60.06960       20.56267
O         55.08626       59.73180       21.60779
C         52.48396       61.45981       20.13435
O         52.84174       62.38176       21.12690
H         52.76452       60.17728       22.57036
H         52.74378       59.37116       19.64666
H         51.37400       61.38731       20.07421
H         52.87346       61.80412       19.15185
H         52.35655       63.22162       20.91677
N         55.33000       60.45253       19.51296
C         56.78088       60.56952       19.62766
C         57.13943       61.61639       20.67188
O         57.95602       61.34144       21.54034
C         57.38893       60.94832       18.27672
H         54.87223       60.69704       18.62280
H         57.21940       59.58581       19.91181
H         58.49505       61.00844       18.36603
H         57.14430       60.16451       17.52774
H         56.99728       61.92386       17.92090
N         56.51369       62.82826       20.66616
C         56.77197       63.89971       21.62571
C         56.63624       63.43152       23.06471
O         57.56496       63.63191       23.83473
C         55.80935       65.06700       21.37144
H         55.79399       62.98858       19.94324
H         57.80745       64.27819       21.47478
H         54.75375       64.74416       21.50348
H         56.01935       65.90091       22.07445
H         55.93590       65.44401       20.33403
N         55.51951       62.77653       23.48998
C         55.34886       62.28327       24.85793
C         56.50109       61.36824       25.23212
O         57.16744       61.62630       26.22504
C         54.01598       61.51935       25.00543
C         52.78823       62.42529       24.80692
C         51.52097       61.62536       24.86066
O         50.74153       61.64309       23.92094
O         51.24028       60.87666       25.94049
H         54.78299       62.59213       22.79525
H         55.33353       63.14183       25.56698
H         53.95447       61.07811       26.02573
H         54.00649       60.68497       24.27952
H         52.82978       62.94943       23.83048
H         52.76853       63.19182       25.60964
N         56.81482       60.29712       24.45660
C         57.92746       59.42272       24.74697
H         58.87156       60.00778       24.77349
H         57.76879       58.91871       25.72261
H         58.01447       58.65060       23.95243
H         56.26210       60.10971       23.61443
Ca        48.45599       61.10265       26.33820
O         46.82224       62.25520       23.99497
H         46.25203       62.62336       24.71596
H         47.06701       63.04194       23.44649

Ca 1.0



