%chk=holoCaM-CaMKII.loop3.water2.frame386.chk
%nprocshared=20
%mem=10GB
%nosave
#b3lyp/svp scf=(tight,noincore,xqc) Test 
#IOP(5/87=12) Density=Current Pop=(MK,readradii) iop(6/33=2) iop(6/42=6)

holoCaM-CaMKII.loop3.water2.frame386 

   0  1 
C         64.15831       84.79126       72.79902
C         64.41590       85.35947       74.16351
O         64.03937       84.74842       75.15330
H         63.55880       85.50765       72.19900
H         65.12893       84.61659       72.28722
H         63.61177       83.82700       72.86396
N         65.07559       86.54305       74.27832
C         65.43321       87.16620       75.54475
C         64.74629       88.52366       75.62487
O         64.89607       89.31225       74.70114
C         66.97759       87.27897       75.59535
C         67.53321       87.74636       76.91415
O         66.71414       87.96218       77.95052
O         68.73759       87.87146       77.06160
H         65.36496       87.02352       73.41127
H         65.10978       86.53204       76.40076
H         67.32138       87.95778       74.78733
H         67.40774       86.26980       75.41245
N         63.97314       88.86407       76.70041
C         63.25090       90.13628       76.80020
C         64.18655       91.31416       76.59591
O         63.89258       92.15186       75.75404
C         62.53603       90.31130       78.16727
C         61.43746       89.26703       78.44872
C         60.77010       89.46367       79.82628
C         59.85427       90.69185       79.93220
N         59.30070       90.79770       81.28501
H         63.91018       88.19445       77.48070
H         62.46769       90.17502       76.00879
H         62.06369       91.31723       78.17412
H         63.29090       90.27607       78.98337
H         61.90448       88.26183       78.45616
H         60.66227       89.27936       77.65162
H         61.55270       89.53798       80.60691
H         60.14540       88.56867       80.03604
H         59.02247       90.58861       79.20055
H         60.41223       91.62357       79.70352
H         60.07114       90.96882       81.97234
H         58.63079       91.59910       81.32595
H         58.79331       89.92024       81.54463
N         65.33490       91.43486       77.32191
C         66.22827       92.58738       77.21422
C         67.57154       92.25775       76.56965
O         68.37084       93.17258       76.42141
C         66.37728       93.26352       78.59699
C         67.03942       92.43671       79.66771
O         67.45966       91.31738       79.43830
O         67.17502       92.94921       80.90454
H         65.57503       90.67834       77.97897
H         65.77540       93.35405       76.54839
H         65.36188       93.53823       78.95592
H         66.96420       94.19963       78.48259
N         67.87663       91.01297       76.09513
C         69.09963       90.74124       75.34820
C         70.38297       90.88774       76.14428
O         71.43771       90.87408       75.52547
H         67.18977       90.25447       76.18109
H         69.13222       91.44745       74.49004
H         69.07503       89.71309       74.92866
N         70.39133       91.02796       77.50155
C         71.61292       91.27884       78.26872
C         72.65387       90.16469       78.19513
O         73.74571       90.37872       78.70603
C         71.27625       91.56502       79.75018
C         70.81581       90.33020       80.49048
N         71.47123       89.90022       81.59128
O         69.84549       89.70812       80.09327
H         69.49343       91.01731       77.99867
H         72.06366       92.20378       77.84552
H         70.48757       92.34640       79.80284
H         72.17990       91.97320       80.25286
H         72.29392       90.40187       81.95586
H         71.14260       89.06041       82.08497
N         72.40077       88.95548       77.61418
C         73.38868       87.89207       77.53935
C         72.95070       86.61488       78.22491
O         73.70915       85.66034       78.15493
H         71.47874       88.76678       77.19668
H         74.35940       88.19851       77.98403
H         73.56919       87.66456       76.46639
N         71.74551       86.48964       78.86475
C         71.30197       85.21040       79.42421
C         69.79856       85.16884       79.65885
O         69.13738       86.19361       79.59935
C         72.13172       84.81998       80.67898
C         72.03960       85.77464       81.85826
C         70.86555       85.87483       82.62778
C         73.16038       86.54141       82.23311
C         70.81939       86.71656       83.74743
C         73.10725       87.38882       83.34546
C         71.94033       87.47669       84.10921
O         71.90812       88.29265       85.18318
H         71.10480       87.29222       78.88064
H         71.46833       84.44411       78.63478
H         73.19334       84.74816       80.36705
H         71.85278       83.80325       81.02879
H         69.99224       85.28662       82.38150
H         74.08083       86.48548       81.66605
H         69.91551       86.77451       84.33957
H         73.97665       87.97484       83.61782
H         71.12137       88.38411       85.73980
N         69.18778       83.96647       79.87802
C         67.74849       83.82199       80.07056
C         67.45084       83.26793       81.44552
O         68.14081       82.37329       81.91240
C         67.05212       82.95603       78.97212
C         67.63726       81.52304       78.85533
C         67.06435       83.69187       77.61957
C         66.79364       80.59291       77.97762
H         69.76854       83.11589       79.90188
H         67.25453       84.81197       80.01869
H         65.98298       82.86744       79.27522
H         67.66427       81.04932       79.85680
H         68.67471       81.56263       78.45958
H         68.09983       83.81262       77.23992
H         66.46067       83.15097       76.86266
H         66.60132       84.69613       77.72869
H         66.74456       80.94242       76.92767
H         67.24586       79.57847       77.97429
H         65.76329       80.51305       78.38713
N         66.34894       83.71653       82.10645
C         65.88223       83.17970       83.37492
C         64.55534       82.46942       83.15543
O         64.08425       82.41813       82.03116
C         65.77178       84.32239       84.39520
O         64.85777       85.28672       83.94880
H         65.76863       84.44088       81.65912
H         66.59747       82.42798       83.77383
H         66.78095       84.77955       84.51245
H         65.44283       83.92778       85.37975
H         64.95830       86.06717       84.55305
N         63.91384       81.85381       84.18508
C         62.66614       81.11249       84.01359
C         61.52704       82.00707       83.55682
O         60.90316       81.70122       82.55000
C         62.27673       80.42749       85.32487
H         64.35031       81.88393       85.11858
H         62.82408       80.30483       83.26285
H         62.11257       81.17356       86.13058
H         61.34642       79.83721       85.18063
H         63.08580       79.73352       85.63712
N         61.20244       83.13168       84.25640
C         60.09411       84.01968       83.90673
C         60.18374       84.47893       82.47029
O         59.20014       84.38075       81.74970
C         60.08454       85.24243       84.83169
H         61.78545       83.37387       85.07287
H         59.12952       83.48310       84.04723
H         59.97369       84.91864       85.88794
H         61.02796       85.82187       84.73141
H         59.22998       85.90684       84.57866
N         61.35907       84.94738       81.97740
C         61.53186       85.37735       80.59688
C         61.13053       84.27574       79.62946
O         60.25715       84.50458       78.80446
C         62.99365       85.75869       80.34301
C         63.47226       86.96226       81.17847
C         64.88960       87.28970       80.84063
O         65.50025       88.38387       81.32744
O         65.50104       86.59047       80.04789
H         62.17048       84.96022       82.61326
H         60.89495       86.26861       80.40424
H         63.10415       86.02012       79.26535
H         63.64489       84.88316       80.55784
H         63.39615       86.78321       82.26855
H         62.85230       87.83404       80.92046
N         61.72237       83.05117       79.68736
C         61.38662       81.94665       78.81437
H         60.60262       82.21320       78.07591
H         62.29623       81.62395       78.26575
H         61.01949       81.09742       79.42842
H         62.44210       82.88083       80.39621
Ca        67.28849       88.61277       80.02570
O         67.71089       87.17329       82.92477
H         67.27398       86.38770       82.51186
H         67.35385       87.20290       83.84774
O         68.10483       90.19409       82.62107
H         68.55085       90.96108       82.18292
H         68.68741       89.97801       83.39159

Ca 1.0



