%chk=holoCaM.loop1.water2.frame235.chk
%nprocshared=20
%mem=10GB
%nosave
#b3lyp/svp scf=(tight,noincore,xqc) Test 
#IOP(5/87=12) Density=Current Pop=(MK,readradii) iop(6/33=2) iop(6/42=6)

holoCaM.loop1.water2.frame235 

   0  1 
C         49.04293       98.79086       65.23414
C         48.43527      100.06342       64.73398
O         48.87965      101.13150       65.13146
H         49.86832       99.00579       65.94651
H         48.26789       98.18944       65.75240
H         49.44993       98.21324       64.37807
N         47.41236      100.02489       63.83429
C         46.80651      101.23558       63.29992
C         46.11383      101.99558       64.42455
O         45.12510      101.51932       64.96469
C         45.83777      100.88207       62.15456
C         45.29266      102.07304       61.42139
O         45.63247      103.33019       61.76579
O         44.54664      101.89139       60.47563
H         47.08684       99.10427       63.49967
H         47.62803      101.84563       62.85827
H         44.99380      100.27515       62.54911
H         46.38912      100.26849       61.40816
N         46.64963      103.16128       64.87234
C         46.13280      103.92274       66.00264
C         44.80326      104.57758       65.68271
O         43.87059      104.41892       66.45801
C         47.14787      105.00708       66.43854
C         48.43846      104.38043       67.00269
C         49.41160      105.44930       67.51512
C         50.64999      104.80120       68.15348
N         51.57358      105.81615       68.65960
H         47.51585      103.48273       64.42517
H         46.00318      103.25095       66.88204
H         46.68791      105.61153       67.25216
H         47.38255      105.68720       65.59032
H         48.94773      103.77035       66.22665
H         48.16551      103.71500       67.85164
H         48.90129      106.07323       68.28137
H         49.72369      106.10164       66.67046
H         51.17357      104.16933       67.40183
H         50.33117      104.14907       68.99780
H         51.91125      106.41853       67.87436
H         51.09950      106.40742       69.38071
H         52.39485      105.34226       69.10080
N         44.65442      105.35895       64.57505
C         43.46164      106.16974       64.32522
C         42.43301      105.49830       63.42811
O         41.39860      106.10483       63.18341
C         43.87377      107.56387       63.79802
C         44.53428      107.57477       62.43887
O         44.93203      108.74890       61.91440
O         44.70737      106.54767       61.80150
H         45.44780      105.42566       63.92053
H         42.93882      106.34943       65.29107
H         44.57178      108.02231       64.53174
H         42.97078      108.20903       63.74002
N         42.60987      104.24146       62.93765
C         41.60495      103.56229       62.14001
C         41.37461      104.23757       60.81098
O         40.24355      104.57874       60.49624
H         43.46491      103.71680       63.16720
H         40.65558      103.48640       62.71429
H         41.95617      102.52855       61.92911
N         42.41783      104.40259       59.95588
C         42.29037      104.87168       58.58122
C         42.69458      103.75893       57.61060
O         42.86983      104.02746       56.43021
C         43.07419      106.19017       58.38206
C         44.56315      106.12517       58.58539
O         45.22591      107.14168       58.45822
O         45.18061      104.97574       58.90318
H         43.35041      104.11496       60.28034
H         41.23378      105.12494       58.34254
H         42.66379      106.94179       59.09175
H         42.88744      106.56244       57.35103
N         42.76316      102.45866       58.03344
C         43.04478      101.32348       57.17295
C         44.49463      101.16836       56.76328
O         44.77091      100.18892       56.08447
H         42.50417      102.22603       59.00131
H         42.38483      101.35955       56.27882
H         42.79070      100.39798       57.73509
N         45.47389      102.05704       57.11003
C         46.86738      101.89706       56.69068
C         47.84058      101.99455       57.85791
O         47.45143      102.36423       58.95725
C         47.22393      102.95396       55.61820
C         46.38178      102.78908       54.34508
O         47.10579      104.25846       56.13017
H         45.22417      102.89292       57.64887
H         47.01352      100.89173       56.23838
H         48.28207      102.80892       55.31161
H         46.14094      104.47880       56.20696
H         46.69679      103.53782       53.58855
H         46.52855      101.77287       53.92128
H         45.30162      102.93525       54.55848
N         49.14737      101.64678       57.66394
C         50.19760      101.74396       58.67177
C         51.35931      102.55915       58.09607
O         51.98882      102.13620       57.13629
C         50.60071      100.30752       59.14191
C         49.47900       99.76381       60.07662
C         51.95223      100.28842       59.86936
C         49.70594       98.34916       60.61231
H         49.41672      101.26685       56.74304
H         49.82747      102.28709       59.56977
H         50.71710       99.65546       58.24783
H         48.51222       99.76454       59.53194
H         49.37719      100.43981       60.95693
H         51.89058      100.89348       60.78863
H         52.25364       99.25510       60.13241
H         52.76287      100.66878       59.21511
H         49.78556       97.62680       59.77484
H         50.61397       98.29167       61.24686
H         48.84684       98.06411       61.25670
N         51.67590      103.76259       58.65436
C         52.77544      104.63547       58.23341
C         54.12120      104.06080       58.66457
O         54.15706      102.99839       59.26131
C         52.61187      106.03798       58.89913
C         51.30735      106.72816       58.49050
O         52.66204      105.90854       60.29690
H         51.08178      104.08662       59.42339
H         52.74597      104.77588       57.13035
H         53.44020      106.69836       58.56062
H         52.80531      106.81732       60.66862
H         51.25687      107.73713       58.95224
H         51.26361      106.84412       57.38728
H         50.42699      106.15334       58.83749
N         55.27324      104.76430       58.46511
C         56.54417      104.40137       59.09158
C         56.39914      104.44695       60.61293
O         56.75318      103.48590       61.28104
C         57.68760      105.36623       58.66261
C         58.00976      105.25889       57.16997
O         57.35954      106.69830       58.97053
H         55.23010      105.63393       57.91514
H         56.84635      103.37567       58.78070
H         58.60271      105.06017       59.22544
H         58.21081      107.18040       59.14002
H         58.85758      105.93446       56.92518
H         58.30719      104.21994       56.91568
H         57.13923      105.55200       56.54802
N         55.88222      105.55771       61.21583
C         55.78335      105.76500       62.66517
C         54.82425      104.81380       63.37455
O         54.73851      104.89288       64.59254
C         55.34397      107.22218       62.94302
C         56.40708      108.22525       62.46360
C         55.90913      109.66958       62.57147
C         56.98716      110.69853       62.18471
N         57.46857      110.53000       60.81049
H         55.57002      106.31902       60.59638
H         56.79039      105.61576       63.11375
H         55.19263      107.38692       64.03276
H         54.37440      107.40508       62.42962
H         56.65853      108.03211       61.40449
H         57.32634      108.08937       63.07428
H         55.59733      109.87468       63.61849
H         55.02220      109.79845       61.91193
H         57.84526      110.62354       62.88839
H         56.54399      111.71317       62.29012
H         58.11780      111.31640       60.58088
H         58.00656      109.63964       60.71188
H         56.66817      110.54308       60.13772
N         54.08864      103.88584       62.70613
C         53.19052      102.94085       63.35563
C         53.78000      101.54688       63.22316
O         53.95438      100.88429       64.23677
C         51.77101      103.09033       62.76501
C         51.21258      104.48980       63.08877
C         49.83903      104.71684       62.53383
O         49.61798      104.62991       61.21308
O         48.92548      105.03894       63.27286
H         54.16035      103.82733       61.68486
H         53.10165      103.13934       64.44761
H         51.09869      102.32202       63.20736
H         51.80056      102.94980       61.66407
H         51.87657      105.26514       62.65813
H         51.18682      104.62895       64.19210
N         54.18864      101.06192       62.02042
C         54.84456       99.78098       61.87709
H         55.77315       99.76285       62.48756
H         54.16644       98.96449       62.19935
H         55.12494       99.61851       60.81368
H         54.07001      101.63228       61.17926
Ca        47.58665      105.09889       60.37113
O         48.48067      107.94640       61.11577
H         47.49446      107.96591       61.03034
H         48.80917      108.36861       60.28278
O         48.01813      106.56809       57.66537
H         48.44865      107.44091       57.84475
H         48.70469      106.04558       57.17996

Ca 1.0



