%chk=holoCaM-CaMKII.loop4.water2.frame199.chk
%nprocshared=20
%mem=10GB
%nosave
#b3lyp/svp scf=(tight,noincore,xqc) Test 
#IOP(5/87=12) Density=Current Pop=(MK,readradii) iop(6/33=2) iop(6/42=6)

holoCaM-CaMKII.loop4.water2.frame199 

   -3  1 
C         11.91030       43.38288       25.06658
C         12.18207       42.55185       23.84230
O         11.66627       42.86507       22.77987
H         10.81964       43.38335       25.27820
H         12.42695       42.97168       25.96143
H         12.25665       44.42354       24.90811
N         12.96632       41.44518       23.93646
C         13.21688       40.51193       22.84028
C         11.90466       39.95415       22.30331
O         11.10258       39.46458       23.08716
C         14.09653       39.35757       23.37319
C         14.10862       38.16718       22.46123
O         13.60832       37.12791       22.85769
O         14.62328       38.19576       21.22063
H         13.37283       41.23078       24.86121
H         13.76592       41.01401       22.01271
H         13.65920       39.00697       24.33538
H         15.12828       39.71365       23.58324
N         11.67576       39.91758       20.95416
C         10.48557       39.31327       20.35958
C         10.79215       37.95543       19.72485
O          9.83641       37.26427       19.39937
C          9.78991       40.27052       19.32976
C         10.63231       40.44818       18.03477
C          9.47311       41.62802       19.98255
C          9.96015       41.26775       16.93175
H         12.40671       40.27463       20.32936
H          9.75563       39.10245       21.17169
H          8.82729       39.79708       19.03399
H         10.84798       39.45107       17.59555
H         11.58354       40.93818       18.27756
H         10.40932       42.16245       20.25368
H          8.88888       42.27498       19.29696
H          8.86271       41.48190       20.89721
H          9.79938       42.31841       17.24592
H         10.62429       41.28787       16.04004
H          8.99304       40.80855       16.63930
N         12.07016       37.52356       19.46459
C         12.35376       36.25429       18.79305
C         13.39486       35.38462       19.51647
O         14.32733       34.90730       18.88366
C         12.70620       36.51845       17.30978
C         13.97958       37.29133       17.07325
O         14.31288       37.55187       15.92888
O         14.76677       37.68496       18.09275
H         12.85517       38.15259       19.65202
H         11.42581       35.64223       18.76892
H         11.86573       37.08408       16.85013
H         12.78641       35.54487       16.77898
N         13.23180       35.04853       20.82592
C         13.98354       33.98157       21.48610
C         15.49661       34.10736       21.66527
O         16.05898       33.12602       22.13019
H         12.43806       35.45993       21.33984
H         13.80186       33.05292       20.90337
H         13.55099       33.82109       22.49796
N         16.22962       35.22297       21.37370
C         17.69421       35.28606       21.55514
C         18.11551       36.17279       22.73388
O         19.30986       36.28500       22.97551
C         18.39142       35.67948       20.22193
C         18.05132       37.06509       19.74431
O         18.40721       37.45494       18.64419
O         17.32771       37.85760       20.54363
H         15.73441       36.05194       21.03034
H         18.08719       34.27785       21.81006
H         18.06629       34.94936       19.44942
H         19.49588       35.60049       20.32493
N         17.20168       36.76555       23.55905
C         17.55814       37.47339       24.78334
C         18.23428       38.82302       24.61145
O         18.53334       39.42829       25.62999
H         16.19904       36.62116       23.38556
H         18.19990       36.81256       25.40612
H         16.62534       37.66701       25.35734
N         18.48271       39.38024       23.39212
C         19.07862       40.70759       23.21579
C         18.09285       41.62788       22.52217
O         17.02621       41.16994       22.14501
C         20.39800       40.56955       22.43773
C         21.45670       39.88547       23.31977
C         22.73356       39.62072       22.57290
N         22.76417       38.71574       21.56743
O         23.75757       40.20318       22.89727
H         18.22327       38.86478       22.54500
H         19.28739       41.18527       24.19783
H         20.78916       41.57058       22.15310
H         20.20917       39.99252       21.50479
H         21.08715       38.91594       23.71617
H         21.66125       40.55734       24.18356
H         21.91539       38.19386       21.30361
H         23.64407       38.51643       21.06936
N         18.33594       42.97376       22.42374
C         17.32336       43.90134       21.92339
C         17.90905       44.83000       20.85707
O         18.72282       45.68314       21.17907
C         16.70754       44.70210       23.11150
C         15.48131       45.50860       22.66324
C         16.27890       43.77497       24.26521
H         19.20692       43.35789       22.81836
H         16.48933       43.32450       21.47386
H         17.47351       45.39960       23.51600
H         15.07280       46.09463       23.51355
H         15.75206       46.21643       21.85951
H         14.68141       44.82742       22.29977
H         15.84613       44.37057       25.09722
H         15.52385       43.03528       23.92275
H         17.15326       43.23020       24.67939
N         17.51961       44.71116       19.55562
C         17.91190       45.60841       18.46727
C         17.22137       46.95911       18.64359
O         16.42727       47.10409       19.55675
C         17.48848       44.93033       17.12770
C         17.80319       45.67232       15.85328
N         19.07330       46.00444       15.53018
O         16.89448       45.95856       15.08839
H         16.89988       43.93572       19.32173
H         19.01658       45.72930       18.47080
H         16.39417       44.74113       17.15605
H         17.99966       43.94670       17.06260
H         19.85641       45.76805       16.15474
H         19.26984       46.50866       14.65236
N         17.45120       47.99365       17.79018
C         16.69131       49.24193       17.82280
C         15.21679       48.96127       17.56659
O         14.38005       49.35489       18.36612
C         17.23864       50.20413       16.74287
C         16.43786       51.48076       16.62647
C         16.31218       52.35737       17.71694
C         15.80551       51.80191       15.41241
C         15.56408       53.53294       17.59398
C         15.06148       52.97767       15.29128
C         14.93779       53.84793       16.38295
O         14.22260       54.98611       16.27936
H         18.17283       47.88190       17.06602
H         16.80914       49.72809       18.81662
H         17.23799       49.67922       15.76176
H         18.29431       50.45633       16.98118
H         16.79025       52.13185       18.66142
H         15.88659       51.14265       14.55677
H         15.47178       54.20045       18.44126
H         14.58208       53.21001       14.34851
H         13.77737       55.24031       15.45823
N         14.84367       48.27365       16.45374
C         13.46377       47.97917       16.07932
C         12.71403       47.26407       17.19555
O         11.56408       47.60298       17.43862
C         13.46791       47.17119       14.75936
C         12.07113       46.94917       14.16509
C         12.17543       46.27148       12.82599
O         11.75779       46.82703       11.82198
O         12.73625       45.05099       12.72475
H         15.59498       47.94422       15.83180
H         12.94315       48.94112       15.87557
H         13.97519       46.19281       14.91335
H         14.05448       47.75413       14.01283
H         11.56801       47.93311       14.03663
H         11.45703       46.32014       14.84279
N         13.30898       46.28960       17.93800
C         12.63068       45.60793       19.04053
C         12.31405       46.59190       20.16265
O         11.15697       46.70297       20.54223
C         13.46112       44.40456       19.54877
C         13.68329       43.38213       18.41153
C         14.39183       42.13653       18.85668
O         13.90104       40.92676       18.54608
O         15.45305       42.20333       19.44085
H         14.28429       46.04064       17.71715
H         11.67512       45.17499       18.66853
H         12.90299       43.91015       20.37505
H         14.44354       44.74742       19.94000
H         14.29752       43.84466       17.61732
H         12.70864       43.09483       17.96277
N         13.29324       47.36563       20.70938
C         13.07430       48.35034       21.75207
H         12.02139       48.37604       22.10077
H         13.72831       48.12391       22.62027
H         13.34244       49.35824       21.36774
H         14.24579       47.27839       20.34851
Ca        16.01033       39.59879       20.16110
O         16.58635       39.93694       16.30842
H         16.86175       39.00084       16.14093
H         15.70361       39.86259       16.74947
O         18.38052       41.19253       18.58014
H         19.28984       41.47746       18.31225
H         17.77641       41.71810       17.99837

Ca 1.0



