%chk=holoCaM.loop1.water2.frame365.chk
%nprocshared=20
%mem=10GB
%nosave
#b3lyp/svp scf=(tight,noincore,xqc) Test 
#IOP(5/87=12) Density=Current Pop=(MK,readradii) iop(6/33=2) iop(6/42=6)

holoCaM.loop1.water2.frame365 

   0  1 
C         10.11374        4.29794       97.54954
C          9.61299        3.78624       98.85274
O          9.23674        4.56070       99.72042
H         11.15903        3.94005       97.43420
H          9.49433        3.88659       96.72518
H         10.09830        5.40478       97.52504
N          9.59668        2.45036       99.05422
C          9.25421        1.85488      100.31904
C         10.47176        1.93058      101.25042
O         11.54641        1.49556      100.86169
C          8.79315        0.41630      100.06065
C          8.24618       -0.17006      101.29620
O          7.90859       -1.32720      101.30938
O          8.01046        0.63868      102.33649
H          9.88181        1.82967       98.28091
H          8.37634        2.39489      100.75063
H          9.62536       -0.19709       99.65850
H          7.95309        0.41640       99.32829
N         10.36334        2.48624      102.49119
C         11.48174        2.79021      103.38828
C         11.58719        1.84306      104.59179
O         12.42158        2.08446      105.45438
C         11.36907        4.26889      103.83458
C         11.19145        5.26176      102.66633
C         12.37287        5.24561      101.69124
C         12.19049        6.27779      100.57374
N         13.30255        6.20787       99.62788
H          9.43229        2.77424      102.79067
H         12.44758        2.66669      102.85356
H         12.27098        4.55568      104.41924
H         10.48656        4.37686      104.50015
H         11.08006        6.28279      103.09091
H         10.25601        5.02896      102.11384
H         12.46090        4.24177      101.22680
H         13.30824        5.47325      102.24645
H         12.13741        7.29753      101.01497
H         11.24188        6.08739      100.02909
H         13.31572        5.26928       99.16523
H         13.17957        6.94389       98.89625
H         14.20846        6.36731      100.12556
N         10.86822        0.68429      104.64842
C         11.14801       -0.40326      105.59711
C         10.85273       -1.81301      105.02763
O         11.02318       -2.76752      105.77397
C         10.57873       -0.14505      107.02649
C          9.10288        0.08963      107.12361
O          8.57193        0.25626      108.20851
O          8.36986        0.20888      106.02472
H         10.20637        0.51754      103.88880
H         12.25121       -0.45457      105.75119
H         11.07671        0.74531      107.46660
H         10.82730       -1.01744      107.66886
N         10.57333       -2.04992      103.70145
C         10.56149       -3.38556      103.11176
C          9.35406       -4.24328      103.42180
O          9.36726       -5.40692      103.04544
H         10.50987       -1.28328      103.02443
H         11.50012       -3.90622      103.39615
H         10.56506       -3.28733      102.00335
N          8.25452       -3.74501      104.04410
C          7.02590       -4.52354      104.23275
C          6.32396       -4.83754      102.90196
O          5.59000       -5.81249      102.82850
C          6.10779       -3.81104      105.25938
C          5.77980       -2.37749      104.96034
O          6.00745       -1.90181      103.86782
O          5.30350       -1.58546      105.93847
H          8.28287       -2.76578      104.35871
H          7.29617       -5.49367      104.70300
H          6.68146       -3.79230      106.20862
H          5.16273       -4.36607      105.43282
N          6.48547       -4.01901      101.82685
C          5.85229       -4.17790      100.52341
C          4.77121       -3.13771      100.28191
O          3.93732       -3.35883       99.41575
H          7.07429       -3.21261      101.96927
H          5.37653       -5.17579      100.45050
H          6.61870       -4.11439       99.71773
N          4.71539       -1.98443      101.00613
C          3.63874       -1.00621      100.92020
C          4.11730        0.39286      101.28757
O          5.20783        0.57013      101.81071
C          2.41295       -1.41792      101.80321
C          1.59293       -2.55745      101.21480
O          2.76393       -1.74441      103.12734
H          5.48537       -1.77428      101.63737
H          3.34186       -0.90175       99.85432
H          1.72682       -0.54614      101.84751
H          3.57763       -2.31046      103.11945
H          1.29676       -2.30177      100.17592
H          2.15738       -3.51009      101.23128
H          0.67024       -2.68849      101.82019
N          3.34339        1.45678      100.93545
C          3.73029        2.84764      101.11023
C          2.67643        3.57511      101.94382
O          1.53009        3.68936      101.53408
C          4.03034        3.45776       99.70057
C          5.46739        3.01559       99.27673
C          3.91306        4.98966       99.65316
C          5.87101        3.40327       97.85648
H          2.45464        1.27382      100.44478
H          4.67301        2.91947      101.67109
H          3.26986        3.07019       98.98748
H          5.56598        1.91253       99.35580
H          6.20718        3.46801       99.97789
H          4.68252        5.47107      100.27632
H          4.02196        5.35208       98.61161
H          2.90903        5.32259       99.98362
H          6.90798        3.05292       97.66388
H          5.18957        2.92095       97.12714
H          5.86463        4.50203       97.71312
N          3.05122        4.11688      103.14123
C          2.25082        5.00822      103.97999
C          2.42097        6.42238      103.48067
O          3.12795        6.59710      102.51106
C          2.76029        4.93881      105.44271
C          2.54901        3.54104      106.01806
O          4.12610        5.28291      105.48048
H          4.03549        4.02908      103.40280
H          1.17503        4.73083      103.93364
H          2.18452        5.65617      106.06649
H          4.37448        5.43159      106.42877
H          3.11149        2.80570      105.42231
H          2.90268        3.50072      107.06890
H          1.47362        3.27105      105.98973
N          1.80311        7.48736      104.06647
C          1.97184        8.84581      103.54374
C          3.32614        9.45530      103.89097
O          3.69499       10.44883      103.28035
C          0.83197        9.77937      103.98911
C         -0.53179        9.21513      103.57783
O          0.86984        9.96666      105.38213
H          1.15438        7.31252      104.84705
H          1.91067        8.78138      102.43384
H          0.98227       10.75019      103.45750
H          0.66893       10.92355      105.55568
H         -0.76262        8.28160      104.13296
H         -1.32889        9.95290      103.79711
H         -0.53936        8.98900      102.48995
N          4.10404        8.94631      104.88369
C          5.44751        9.44015      105.18094
C          6.40863        9.00504      104.08948
O          7.32851        9.74002      103.75942
C          5.84726        8.98124      106.60551
C          5.08687        9.88018      107.59966
C          5.20725        9.48920      109.07389
C          4.91280       10.73461      109.93241
N          4.73632       10.41094      111.34619
H          3.74298        8.15638      105.44050
H          5.46100       10.55343      105.18359
H          6.93262        9.13931      106.79126
H          5.62811        7.89900      106.74777
H          3.99891        9.92729      107.36362
H          5.50942       10.89938      107.45406
H          6.23425        9.14532      109.32312
H          4.49353        8.65919      109.27590
H          4.00460       11.26992      109.57422
H          5.78096       11.42375      109.80995
H          3.75423       10.08551      111.50109
H          5.40796        9.67377      111.65732
H          4.89020       11.27731      111.91214
N          6.20681        7.82732      103.45182
C          6.99476        7.32809      102.33374
C          6.56849        8.00578      101.03064
O          7.42286        8.43161      100.26727
C          6.81914        5.78785      102.28805
C          7.34960        5.18319      103.61141
C          7.20332        3.70355      103.76436
O          6.17844        3.14446      103.43292
O          8.03165        3.06664      104.61069
H          5.43148        7.23529      103.78382
H          8.08255        7.50061      102.50024
H          7.37349        5.36188      101.42521
H          5.74491        5.53790      102.17950
H          6.82261        5.62375      104.48001
H          8.42288        5.43518      103.71828
N          5.24977        8.10990      100.71147
C          4.71238        8.64639       99.47946
H          3.92287        9.39627       99.70722
H          5.48858        9.10843       98.83929
H          4.22924        7.81790       98.92011
H          4.57038        7.77543      101.38209
Ca         7.08274        0.40934      104.29600
O          5.59510        2.35957      106.51459
H          5.21002        2.64462      107.37978
H          5.42898        3.12525      105.91222
O          4.01543        0.69416      104.77026
H          3.42566        0.42400      105.51747
H          3.73688        0.12092      104.02375

Ca 1.0



