%chk=holoCaM.loop2.water1.frame238.chk
%nprocshared=20
%mem=10GB
%nosave
#b3lyp/svp scf=(tight,noincore,xqc) Test 
#IOP(5/87=12) Density=Current Pop=(MK,readradii) iop(6/33=2) iop(6/42=6)

holoCaM.loop2.water1.frame238 

   -2  1 
C         58.08936      104.17620       55.83892
C         56.92037      105.08024       56.08263
O         55.78688      104.62869       55.99143
H         58.73500      104.15003       56.74234
H         57.74605      103.14251       55.61902
H         58.67696      104.55370       54.97737
N         57.12509      106.37880       56.43945
C         56.02030      107.27526       56.74698
C         55.37684      107.72493       55.44167
O         56.02972      108.41531       54.67084
C         56.53560      108.45223       57.60753
C         55.43811      109.19646       58.31454
O         55.39064      109.18829       59.65983
O         54.59165      109.80949       57.69357
H         58.09621      106.70646       56.56464
H         55.30518      106.71162       57.38902
H         57.16601      109.14301       57.00535
H         57.17880      108.02518       58.40845
N         54.13056      107.30005       55.08685
C         53.52097      107.62159       53.79576
C         53.10024      109.08325       53.66319
O         52.72902      109.47281       52.56474
C         52.31267      106.71382       53.53340
H         53.65227      106.64619       55.71580
H         54.27078      107.39451       53.00525
H         52.62348      105.64798       53.58858
H         51.51288      106.89460       54.27939
H         51.89791      106.89855       52.51953
N         53.11912      109.94518       54.72168
C         52.77428      111.36702       54.62599
C         53.97681      112.23689       54.99486
O         53.85205      113.45316       54.93577
C         51.56926      111.74822       55.55656
C         50.97963      110.58766       56.30504
O         50.46553      109.64774       55.71922
O         51.19509      110.53620       57.63172
H         53.38572      109.58376       55.64385
H         52.48720      111.61828       53.58217
H         50.79648      112.31747       54.99831
H         51.92691      112.44354       56.34878
N         55.15423      111.69635       55.43836
C         56.26341      112.48781       55.93753
C         55.95280      113.22659       57.23372
O         56.81358      113.97912       57.66742
H         55.29407      110.68159       55.43927
H         56.56188      113.21522       55.15096
H         57.13205      111.82191       56.13286
N         54.75461      113.11422       57.89017
C         54.39241      114.00761       58.98957
C         55.10414      113.71531       60.30741
O         55.05120      114.56988       61.18056
C         52.86050      114.06971       59.16974
C         52.28435      112.87167       59.88157
N         51.50039      113.04182       60.97126
O         52.52338      111.74562       59.48015
H         54.03044      112.49015       57.51571
H         54.68374      115.02700       58.64971
H         52.39100      114.17468       58.16655
H         52.60027      114.98267       59.74623
H         51.27664      113.98365       61.32226
H         51.09644      112.23368       61.46022
N         55.75669      112.53698       60.54328
C         56.52485      112.27993       61.75688
C         55.99931      111.15156       62.62894
O         56.69031      110.82413       63.58344
H         55.74694      111.79938       59.82511
H         56.58807      113.18334       62.40138
H         57.56086      112.02974       61.44429
N         54.78737      110.55168       62.43057
C         54.26516      109.50208       63.31189
C         53.78072      108.29647       62.51858
O         52.89552      108.42520       61.68660
C         53.12742      110.04310       64.21192
C         53.68450      110.90687       65.35224
O         52.20957      110.77701       63.44662
H         54.18152      110.88676       61.66725
H         55.05369      109.13966       64.00746
H         52.61638      109.17394       64.68991
H         51.44098      110.98890       64.03816
H         54.22694      111.79175       64.96316
H         52.85549      111.24629       66.00930
H         54.37652      110.30027       65.97784
N         54.30174      107.06571       62.78679
C         53.83448      105.81700       62.18728
C         52.36987      105.57592       62.56761
O         52.04020      105.54228       63.74492
C         54.77273      104.63417       62.62951
C         56.10389      104.60848       61.81890
C         54.11845      103.25101       62.44843
C         56.94479      105.88258       61.85429
H         55.05221      107.00965       63.49151
H         53.90187      105.87586       61.07857
H         54.98674      104.72709       63.71809
H         55.87555      104.39164       60.75097
H         56.73838      103.77950       62.20406
H         53.85216      103.08102       61.38651
H         54.81399      102.44842       62.77801
H         53.20952      103.15387       63.07697
H         57.87114      105.72037       61.26247
H         56.40292      106.72887       61.38440
H         57.22936      106.13614       62.89572
N         51.46086      105.31876       61.58193
C         50.07531      104.90502       61.78395
C         49.98975      103.39254       61.68115
O         51.01699      102.75117       61.54054
C         49.17839      105.52729       60.68915
C         49.14099      107.01738       60.74938
O         48.67595      107.63359       61.85218
O         49.47907      107.67552       59.78008
H         51.81045      105.26823       60.62268
H         49.71123      105.19803       62.79342
H         48.13006      105.18696       60.80259
H         49.53743      105.19816       59.68668
N         48.79681      102.74151       61.76046
C         48.68528      101.29054       61.69173
C         49.19869      100.69830       60.37174
O         50.06039       99.83562       60.45993
C         47.23819      100.83485       61.97378
C         47.13436       99.32719       62.00388
C         47.84183       98.58341       62.96661
C         46.34002       98.65018       61.06334
C         47.75957       97.18896       62.98214
C         46.26090       97.25417       61.08305
C         46.97065       96.52438       62.04061
H         47.93852      103.29269       61.91235
H         49.30891      100.87843       62.51662
H         46.55698      101.25698       61.21093
H         46.90711      101.23181       62.95787
H         48.45871       99.08014       63.70467
H         45.78894       99.20023       60.31073
H         48.30947       96.62417       63.72398
H         45.65106       96.73751       60.35371
H         46.90988       95.44407       62.05339
N         48.73776      101.04662       59.12335
C         49.18094      100.37146       57.90541
C         50.63683      100.66128       57.58346
O         51.24934       99.88862       56.85937
C         48.21625      100.89590       56.83601
C         47.93773      102.30375       57.32003
C         47.77796      102.09192       58.82690
H         49.05223       99.26988       57.99187
H         48.56540      100.79674       55.78550
H         47.25535      100.34123       56.93665
H         48.85642      102.90457       57.13668
H         47.08338      102.82203       56.83507
H         47.99855      103.05337       59.33318
H         46.75870      101.73099       59.07129
N         51.25260      101.76175       58.08329
C         52.66492      102.06843       57.89374
C         53.48571      101.06740       58.68314
O         54.37616      100.44524       58.12221
C         52.90563      103.54223       58.30294
C         52.13412      104.42899       57.29521
C         52.00777      105.88702       57.58823
O         52.46282      106.46937       58.70604
O         51.38726      106.57319       56.79283
H         50.69022      102.41902       58.64463
H         52.94563      101.99630       56.81777
H         53.98547      103.80559       58.26872
H         52.54463      103.68358       59.33781
H         51.08469      104.08514       57.20645
H         52.61492      104.31484       56.29931
N         53.17664      100.80293       59.98040
C         53.85001       99.79679       60.76778
H         54.91993      100.05944       60.88962
H         53.37723       99.73320       61.77271
H         53.75236       98.80535       60.27608
H         52.39728      101.30072       60.41530
Ca        51.91748      108.64278       58.59537
O         50.52183      109.83958       61.22950
H         50.35397      109.58933       62.17216
H         49.64619      110.15987       60.89863

Ca 1.0



