%chk=holoCaM.loop1.water2.frame25.chk
%nprocshared=20
%mem=10GB
%nosave
#b3lyp/svp scf=(tight,noincore,xqc) Test 
#IOP(5/87=12) Density=Current Pop=(MK,readradii) iop(6/33=2) iop(6/42=6)

holoCaM.loop1.water2.frame25 

   0  1 
C         70.36706       -0.50326       -3.42412
C         70.56618       -1.36242       -4.63148
O         71.54523       -1.16079       -5.33674
H         69.45811       -0.80168       -2.86176
H         71.25026       -0.59593       -2.75965
H         70.25610        0.55405       -3.74524
N         69.65284       -2.31908       -4.96014
C         69.77459       -3.13174       -6.15628
C         68.91284       -2.53547       -7.25895
O         67.82432       -2.05770       -6.97021
C         69.47333       -4.60806       -5.85806
C         69.78218       -5.38609       -7.09019
O         68.90731       -6.00981       -7.66036
O         71.00785       -5.27808       -7.63627
H         68.80120       -2.42183       -4.38661
H         70.82544       -3.09278       -6.50483
H         68.41099       -4.74329       -5.55447
H         70.12921       -4.97637       -5.03988
N         69.38156       -2.47225       -8.54319
C         68.75338       -1.66602       -9.58978
C         68.00878       -2.47069      -10.64471
O         67.27429       -1.85862      -11.40796
C         69.82970       -0.76854      -10.26614
C         70.81911       -1.57760      -11.14667
C         71.91458       -0.70042      -11.76867
C         72.89500       -1.50756      -12.64660
N         72.25954       -2.04595      -13.85286
H         70.25967       -2.95745       -8.76014
H         67.99646       -1.00686       -9.11133
H         70.38591       -0.21638       -9.47623
H         69.32717       -0.02029      -10.91680
H         70.24112       -2.06344      -11.95642
H         71.32207       -2.36678      -10.55416
H         72.49641       -0.23838      -10.94327
H         71.46414        0.11519      -12.37376
H         73.34528       -2.33602      -12.05552
H         73.72005       -0.83004      -12.95886
H         71.84566       -1.26876      -14.41742
H         72.98359       -2.52967      -14.43193
H         71.52221       -2.74482      -13.61400
N         68.20345       -3.80939      -10.81401
C         67.57508       -4.57827      -11.89271
C         66.89659       -5.85120      -11.38456
O         66.40562       -6.62017      -12.19842
C         68.61511       -4.80384      -13.01868
C         69.84568       -5.56178      -12.62043
O         70.83921       -5.52641      -13.32737
O         69.86725       -6.25953      -11.47929
H         68.89654       -4.28335      -10.21844
H         66.77257       -3.98145      -12.37837
H         68.94460       -3.78656      -13.32738
H         68.15871       -5.28735      -13.90769
N         66.76725       -6.10310      -10.04997
C         66.05544       -7.24136       -9.49475
C         66.73940       -8.56382       -9.74099
O         66.09018       -9.49692      -10.19091
H         67.12671       -5.42324       -9.36725
H         65.00428       -7.25530       -9.85665
H         66.02314       -7.11553       -8.38957
N         68.04421       -8.72603       -9.39167
C         68.74135      -10.00690       -9.37161
C         69.25531      -10.32159       -7.95781
O         69.91763      -11.33635       -7.79107
C         69.85050      -10.03669      -10.44993
C         70.96791       -9.05186      -10.27676
O         71.01319       -8.23899       -9.21400
O         71.85826       -8.99670      -11.10911
H         68.56264       -7.89705       -9.08126
H         68.04598      -10.82948       -9.64898
H         69.37303       -9.84535      -11.43568
H         70.29921      -11.05314      -10.47910
N         68.94027       -9.53172       -6.87977
C         69.32401       -9.83518       -5.50756
C         70.79320       -9.62492       -5.17868
O         71.15876       -9.89821       -4.04587
H         68.32034       -8.71935       -7.00060
H         69.02563      -10.88059       -5.27412
H         68.75409       -9.16763       -4.82403
N         71.68863       -9.14247       -6.08875
C         73.11537       -8.95857       -5.81178
C         73.54825       -7.51973       -6.06175
O         72.92515       -6.84009       -6.85678
C         73.95002       -9.91711       -6.68989
C         73.65677      -11.39008       -6.36868
O         73.75108       -9.65751       -8.05857
H         71.35448       -8.91435       -7.02486
H         73.33504       -9.19431       -4.74792
H         75.02625       -9.74871       -6.46884
H         72.87875      -10.04616       -8.32911
H         73.87733      -11.59872       -5.30092
H         72.59212      -11.63765       -6.56851
H         74.29458      -12.04325       -7.00021
N         74.62372       -6.99297       -5.39995
C         75.08116       -5.61060       -5.55990
C         76.53452       -5.59827       -6.03556
O         77.41689       -6.04069       -5.31519
C         74.85662       -4.84017       -4.21699
C         73.32433       -4.65662       -4.00623
C         75.57650       -3.47955       -4.18442
C         72.92879       -3.91911       -2.72653
H         75.12417       -7.58891       -4.72412
H         74.48179       -5.08739       -6.33712
H         75.28825       -5.44215       -3.38646
H         72.83629       -5.65388       -3.98087
H         72.89908       -4.08874       -4.86470
H         76.66681       -3.59888       -4.34572
H         75.15770       -2.79930       -4.94145
H         75.47544       -3.00183       -3.18923
H         73.31526       -4.45348       -1.83477
H         73.30063       -2.87390       -2.73089
H         71.82057       -3.86730       -2.66576
N         76.83420       -5.09652       -7.27205
C         78.18631       -4.99942       -7.83242
C         79.00159       -3.89454       -7.16492
O         78.50373       -3.20902       -6.28361
C         78.10439       -4.67054       -9.35700
C         77.45558       -5.81611      -10.15288
O         77.44310       -3.43766       -9.54102
H         76.04641       -4.79203       -7.86138
H         78.71055       -5.97372       -7.71836
H         79.12097       -4.57008       -9.78831
H         76.74566       -3.52754      -10.23959
H         76.41255       -5.98203       -9.82624
H         77.45116       -5.56311      -11.23539
H         78.03971       -6.75087      -10.01921
N         80.26367       -3.62988       -7.61340
C         81.03530       -2.43996       -7.25756
C         80.31140       -1.18750       -7.75435
O         80.13996       -0.25888       -6.98083
C         82.46524       -2.50374       -7.85780
C         83.27266       -3.66297       -7.25500
O         82.40895       -2.63899       -9.25524
H         80.67207       -4.27521       -8.30486
H         81.15630       -2.37787       -6.15179
H         82.98282       -1.55139       -7.59383
H         83.30841       -2.40663       -9.60515
H         83.34329       -3.54848       -6.15233
H         82.80695       -4.64405       -7.48322
H         84.30225       -3.66235       -7.67087
N         79.83890       -1.10772       -9.03556
C         79.06694        0.02896       -9.55784
C         77.71981        0.24458       -8.86393
O         77.08633        1.24674       -9.16871
C         78.82961       -0.15405      -11.08177
C         80.07618        0.19061      -11.92019
C         80.23489        1.72076      -12.04376
C         81.45178        2.12447      -12.88073
N         81.47687        3.57570      -13.07737
H         80.02848       -1.90119       -9.66567
H         79.64279        0.95859       -9.37695
H         78.00230        0.48793      -11.45687
H         78.51028       -1.20503      -11.25972
H         79.92711       -0.20287      -12.94933
H         80.98167       -0.29289      -11.49230
H         80.32695        2.20021      -11.04859
H         79.32110        2.11974      -12.53854
H         81.41080        1.62686      -13.87443
H         82.37938        1.80094      -12.35863
H         81.49723        4.07002      -12.15566
H         82.32877        3.83754      -13.62319
H         80.63009        3.87653      -13.61419
N         77.22293       -0.60416       -7.92096
C         75.97969       -0.36772       -7.18869
C         76.22117       -0.19264       -5.69119
O         75.26685        0.11912       -4.99226
C         75.03370       -1.55838       -7.38962
C         74.55397       -1.72650       -8.82740
C         73.75543       -2.98979       -8.91569
O         74.11018       -3.89790       -9.64555
O         72.66726       -3.14494       -8.14765
H         77.74205       -1.45728       -7.70308
H         75.48393        0.56439       -7.53896
H         74.13421       -1.43910       -6.74397
H         75.57717       -2.47849       -7.08520
H         75.41463       -1.77838       -9.52216
H         73.92256       -0.86097       -9.11589
N         77.44429       -0.38654       -5.11928
C         77.70799       -0.23723       -3.70423
H         78.50744        0.52003       -3.56215
H         76.81153        0.08241       -3.13501
H         78.05987       -1.20831       -3.29630
H         78.23956       -0.67513       -5.68954
Ca        71.22095       -5.70293       -9.80836
O         73.77930       -5.29658      -12.00818
H         73.46298       -5.07015      -12.91710
H         74.71804       -4.98157      -11.98718
O         74.41258       -7.62290      -10.07048
H         74.69819       -7.68946      -11.01591
H         75.14276       -8.05977       -9.56432

Ca 1.0



