%chk=holoCaM-CaMKII.loop4.water2.frame79.chk
%nprocshared=20
%mem=10GB
%nosave
#b3lyp/svp scf=(tight,noincore,xqc) Test 
#IOP(5/87=12) Density=Current Pop=(MK,readradii) iop(6/33=2) iop(6/42=6)

holoCaM-CaMKII.loop4.water2.frame79 

   -3  1 
C          6.49672       51.93928       66.63489
C          7.75666       51.11980       66.53675
O          8.84240       51.66192       66.67792
H          5.86039       51.54691       67.45763
H          6.72360       53.00607       66.84551
H          5.92522       51.87777       65.68412
N          7.66877       49.77911       66.31778
C          8.81842       48.87069       66.24851
C          9.66466       49.20562       65.02324
O          9.17152       49.10687       63.90756
C          8.26351       47.42900       66.18145
C          9.15553       46.21109       66.16280
O         10.47388       46.18287       66.43954
O          8.61463       45.15181       65.90480
H          6.71732       49.38548       66.23104
H          9.40540       48.98426       67.18522
H          7.66090       47.37818       65.24849
H          7.56954       47.28298       67.03726
N         10.93615       49.66965       65.17107
C         11.76584       50.12509       64.05428
C         12.41428       48.94963       63.32372
O         12.63130       49.06596       62.12553
C         12.82468       51.17496       64.53650
C         12.18501       52.35004       65.33623
C         13.69113       51.72724       63.39192
C         11.14762       53.17656       64.57098
H         11.28124       49.79600       66.12993
H         11.12017       50.66634       63.32853
H         13.53199       50.66931       65.21475
H         12.98950       53.03184       65.68878
H         11.68871       51.95985       66.24258
H         14.43206       52.45124       63.79743
H         14.26799       50.91375       62.90727
H         13.07461       52.23574       62.62433
H         10.76059       53.97911       65.23422
H         11.59511       53.65452       63.67712
H         10.28415       52.55043       64.26681
N         12.78585       47.80778       63.98099
C         13.49876       46.69821       63.33690
C         12.69737       45.39556       63.29890
O         13.24129       44.39494       62.85066
C         14.88589       46.50028       63.99594
C         14.88685       46.06112       65.43794
O         16.06442       45.84665       66.05426
O         13.85030       45.88742       66.05602
H         12.58072       47.73329       64.98703
H         13.71248       46.94462       62.27361
H         15.45111       47.45456       63.92271
H         15.44578       45.73536       63.41429
N         11.38587       45.33846       63.66845
C         10.56919       44.14029       63.51633
C         10.85267       43.01111       64.49558
O         10.19259       41.98901       64.36760
H         10.90861       46.20224       63.95774
H         10.67326       43.76523       62.47471
H          9.50351       44.41781       63.65118
N         11.78140       43.09267       65.49507
C         12.04441       41.97595       66.40999
C         10.85124       41.59845       67.29607
O         10.90440       40.54127       67.90890
C         13.30734       42.23321       67.26566
C         13.24273       43.43594       68.17387
O         12.25772       44.15468       68.21385
O         14.30650       43.73345       68.94296
H         12.34399       43.94722       65.58012
H         12.26983       41.08890       65.77547
H         14.17064       42.37416       66.58031
H         13.51210       41.33500       67.88821
N          9.75002       42.39576       67.41026
C          8.54248       42.02373       68.13623
C          8.21778       42.94070       69.29922
O          7.13475       42.79127       69.84880
H          9.74287       43.30366       66.93644
H          8.59148       40.98433       68.52690
H          7.70107       42.06540       67.41148
N          9.10182       43.86598       69.77368
C          8.82985       44.72352       70.92772
C          9.05691       46.18529       70.59179
O          9.52803       46.49025       69.50399
C          9.76794       44.31913       72.08490
C          9.43642       42.91998       72.62291
C         10.38756       42.51518       73.71801
N         11.70073       42.31902       73.45370
O          9.96635       42.34596       74.85248
H         10.03292       43.93444       69.34142
H          7.77404       44.62159       71.26262
H          9.66681       45.03244       72.93144
H         10.81864       44.36086       71.72498
H          9.48620       42.15778       71.81719
H          8.39765       42.94274       73.02137
H         12.07016       42.43609       72.49885
H         12.34818       42.03218       74.20272
N          8.74472       47.15177       71.50699
C          9.04732       48.56572       71.31889
C          9.91745       49.01087       72.48760
O          9.44049       49.05806       73.61415
C          7.74863       49.40900       71.20328
C          8.07148       50.89113       70.94360
C          6.85271       48.88553       70.06792
H          8.29169       46.87009       72.39100
H          9.61296       48.70189       70.36974
H          7.17474       49.32980       72.15340
H          8.68060       51.31607       71.76792
H          8.63109       51.00881       69.98991
H          7.13289       51.48207       70.87719
H          6.55678       47.83152       70.25375
H          5.92095       49.48733       70.00371
H          7.38104       48.94085       69.09276
N         11.23573       49.27808       72.28966
C         12.17654       49.61688       73.35611
C         11.93572       51.03597       73.87179
O         11.10043       51.73872       73.32161
C         13.61259       49.44994       72.78583
C         14.72867       49.55469       73.79114
N         14.80070       48.69952       74.83773
O         15.59181       50.40660       73.64694
H         11.60166       49.14663       71.34070
H         12.04163       48.88221       74.17984
H         13.76569       50.19083       71.97144
H         13.69585       48.43666       72.33886
H         14.09201       47.96374       74.96961
H         15.57198       48.77090       75.51767
N         12.65520       51.53119       74.92201
C         12.56177       52.91368       75.38760
C         12.98850       53.86413       74.28194
O         12.28870       54.82982       74.01448
C         13.49568       53.14573       76.59551
C         13.30219       54.53677       77.15461
C         12.11662       54.86030       77.83617
C         14.28819       55.52308       76.98651
C         11.92219       56.14657       78.34605
C         14.08533       56.81421       77.48542
C         12.90161       57.12886       78.16985
O         12.69354       58.36797       78.65893
H         13.31555       50.90708       75.40393
H         11.51605       53.12283       75.70594
H         14.54749       52.99747       76.26348
H         13.29877       52.40924       77.40394
H         11.34591       54.11291       77.97909
H         15.20380       55.29972       76.45314
H         11.00704       56.38016       78.87575
H         14.84685       57.56938       77.33732
H         13.34204       59.07862       78.55424
N         14.13913       53.62056       73.59047
C         14.61907       54.43466       72.47955
C         13.54212       54.55183       71.42595
O         13.20994       55.65316       71.01063
C         15.85317       53.77832       71.79864
C         17.08671       53.63612       72.70011
C         18.21233       52.98692       71.94091
O         19.37300       53.64422       71.75809
O         18.08182       51.85901       71.48996
H         14.66704       52.77378       73.83803
H         14.89904       55.44903       72.83999
H         16.14384       54.39914       70.92063
H         15.57500       52.76790       71.42309
H         16.86482       53.00651       73.58521
H         17.40328       54.64122       73.04990
N         12.98080       53.41993       70.92823
C         12.05383       53.40901       69.80728
C         10.71853       54.05742       70.14057
O          9.97085       54.35199       69.21848
C         11.86240       51.96349       69.31520
C         13.22544       51.35161       68.90693
C         13.06649       49.96668       68.40689
O         13.46096       49.66816       67.29683
O         12.44055       49.04307       69.13734
H         13.27905       52.52631       71.34242
H         12.52259       53.98889       68.98007
H         11.16599       51.95445       68.45087
H         11.40038       51.35784       70.12783
H         13.92763       51.29554       69.75761
H         13.68977       51.97439       68.11236
N         10.34773       54.30210       71.42914
C          9.12081       54.96894       71.80880
H          8.49437       54.27665       72.40886
H          9.37236       55.85312       72.43290
H          8.53755       55.31638       70.93155
H         10.95244       53.99212       72.19487
Ca        11.64287       47.53086       67.74435
O         15.44149       47.67971       68.96552
H         15.68631       48.53523       68.53173
H         15.03024       47.14398       68.24227
O         12.97816       46.14185       70.95210
H         12.95271       45.15679       70.86212
H         13.94312       46.36245       70.94418

Ca 1.0



