%chk=holoCaM.loop4.water3.frame272.chk
%nprocshared=20
%mem=10GB
%nosave
#b3lyp/svp scf=(tight,noincore,xqc) Test 
#IOP(5/87=12) Density=Current Pop=(MK,readradii) iop(6/33=2) iop(6/42=6)

holoCaM.loop4.water3.frame272 

   -3  1 
C         39.72553       64.12646       79.90493
C         39.44753       64.43424       78.46286
O         39.64303       65.56868       78.06391
H         40.78665       64.37166       80.12810
H         39.06981       64.73685       80.55921
H         39.56421       63.05161       80.12925
N         38.99560       63.46828       77.61594
C         38.82262       63.66469       76.18084
C         37.35329       63.52763       75.80248
O         36.72911       62.55421       76.20138
C         39.68311       62.61799       75.44847
C         39.75798       62.83050       73.96289
O         40.35359       62.02163       73.27069
O         39.22713       63.92648       73.39025
H         38.80037       62.52995       77.99789
H         39.18978       64.66697       75.88029
H         39.27599       61.60567       75.65927
H         40.72627       62.66266       75.83126
N         36.74842       64.45898       75.00299
C         35.33338       64.43081       74.63882
C         35.09245       64.08679       73.16694
O         33.95883       63.74811       72.85470
C         34.63329       65.79064       74.98853
C         35.13286       66.95670       74.08097
C         34.82027       66.12771       76.47874
C         34.37297       68.27253       74.25190
H         37.31987       65.22016       74.63906
H         34.83705       63.62375       75.22152
H         33.54465       65.66125       74.79794
H         35.01074       66.67357       73.01569
H         36.20169       67.15835       74.26510
H         34.44921       65.29503       77.11072
H         35.89247       66.30477       76.71147
H         34.24881       67.03570       76.75885
H         34.50878       68.69444       75.26721
H         34.76908       69.01607       73.52596
H         33.29222       68.12424       74.04602
N         36.04566       64.25055       72.19491
C         35.74668       64.08559       70.76656
C         36.79617       63.30351       69.96960
O         36.58091       63.11801       68.77921
C         35.47131       65.46553       70.12901
C         36.61888       66.43884       70.14018
O         37.80722       66.12663       70.68788
O         36.46388       67.54040       69.64000
H         36.95515       64.64454       72.46236
H         34.79759       63.51726       70.64960
H         34.61869       65.93451       70.66687
H         35.15590       65.31486       69.07373
N         37.92647       62.78644       70.53119
C         38.88192       61.97142       69.78831
C         39.69737       62.69461       68.72237
O         40.45254       62.01200       68.04381
H         38.08175       62.89154       71.53829
H         38.32869       61.13076       69.31482
H         39.60984       61.52934       70.50243
N         39.62943       64.04245       68.50410
C         40.39311       64.71805       67.44607
C         41.92071       64.72543       67.64771
O         42.60892       65.23885       66.77645
C         39.86318       66.15355       67.21542
C         40.05470       67.10662       68.36072
O         40.62914       66.71242       69.51004
O         39.68123       68.26176       68.24246
H         38.97346       64.59886       69.06532
H         40.18708       64.17866       66.49445
H         38.77619       66.09854       66.98675
H         40.37297       66.58223       66.32527
N         42.52661       64.15861       68.73137
C         43.97301       64.01254       68.86139
C         44.68796       65.15683       69.56271
O         45.87849       65.00198       69.80170
H         41.95136       63.66933       69.42472
H         44.43661       63.79540       67.87396
H         44.15505       63.11182       69.48703
N         44.06836       66.31574       69.93151
C         44.73993       67.39351       70.66878
C         43.98470       67.72897       71.94914
O         42.97817       67.08621       72.21390
C         44.93312       68.62076       69.75710
C         43.63332       69.27826       69.26405
C         43.90665       70.47476       68.37929
N         42.87612       71.18146       67.86413
O         45.05354       70.81424       68.12168
H         43.08078       66.44749       69.67817
H         45.76237       67.07767       70.97184
H         45.53276       68.29825       68.87733
H         45.52908       69.38194       70.30475
H         43.03568       69.61590       70.13789
H         43.03649       68.54558       68.68177
H         41.90220       70.91525       68.06823
H         43.05436       71.99805       67.26040
N         44.40079       68.72123       72.79662
C         43.69378       69.05113       74.03307
C         43.08338       70.44837       73.93410
O         43.80942       71.43325       73.91865
C         44.62569       68.89265       75.27095
C         43.89463       69.21415       76.58652
C         45.18352       67.46286       75.36405
H         45.24267       69.26862       72.56137
H         42.86744       68.33737       74.18158
H         45.48254       69.59414       75.16876
H         43.03555       68.52715       76.73819
H         44.58568       69.10457       77.44958
H         43.52917       70.25830       76.59143
H         44.35908       66.73026       75.48968
H         45.76133       67.20062       74.45416
H         45.86508       67.37220       76.23727
N         41.72647       70.58670       73.86916
C         40.99349       71.85832       73.87527
C         41.15363       72.55452       75.22050
O         41.74994       71.99050       76.12085
C         39.49569       71.53071       73.60668
C         38.48550       72.64815       73.66277
N         38.54945       73.69896       72.81624
O         37.57376       72.58498       74.47471
H         41.17232       69.72233       73.81321
H         41.37977       72.51269       73.06425
H         39.18269       70.77819       74.35184
H         39.42418       71.07524       72.60383
H         39.30192       73.76791       72.11779
H         37.84179       74.44736       72.86790
N         40.62671       73.79247       75.43224
C         40.63970       74.45091       76.73133
C         39.85840       73.63759       77.75367
O         40.43098       73.27238       78.77118
C         40.02215       75.86524       76.61522
C         39.84317       76.50449       77.97254
C         40.94844       76.79093       78.79000
C         38.54843       76.77919       78.44487
C         40.75764       77.33542       80.06423
C         38.36029       77.31844       79.71770
C         39.46504       77.59596       80.53418
O         39.29559       78.10624       81.77020
H         40.19160       74.28505       74.64270
H         41.69228       74.55718       77.07782
H         39.02929       75.77543       76.12176
H         40.65442       76.50771       75.96507
H         41.95404       76.58348       78.44644
H         37.68089       76.55921       77.83531
H         41.61498       77.54624       80.69060
H         37.35474       77.51168       80.06940
H         38.41694       78.28642       82.13436
N         38.53153       73.37173       77.57817
C         37.72779       72.70077       78.59591
C         38.23177       71.30140       78.88545
O         38.13941       70.87994       80.03044
C         36.22582       72.66844       78.24971
C         35.63494       74.08399       78.12232
C         34.14242       74.03591       77.97087
O         33.38310       73.50525       78.94920
O         33.60759       74.49960       76.97674
H         38.07731       73.70020       76.71534
H         37.81836       73.28839       79.53837
H         35.70181       72.14899       79.08345
H         36.05032       72.09359       77.31347
H         36.08110       74.60595       77.24946
H         35.86430       74.67270       79.03665
N         38.82371       70.53991       77.92055
C         39.43004       69.24783       78.22170
C         40.53407       69.42892       79.24971
O         40.50848       68.76147       80.27409
C         40.00163       68.56902       76.96240
C         38.90999       68.16872       75.95340
C         39.44321       67.14700       74.95065
O         38.58179       66.97622       73.86729
O         40.69548       67.45793       74.43644
H         38.88215       70.90827       76.95922
H         38.66252       68.55814       78.64108
H         40.51940       67.64956       77.29797
H         40.75979       69.21021       76.46283
H         38.49942       69.06410       75.45603
H         38.06868       67.66367       76.47420
N         41.50966       70.35681       79.05212
C         42.57208       70.63440       79.99481
H         43.55162       70.52701       79.48503
H         42.47310       71.68051       80.35609
H         42.54863       69.95470       80.87106
H         41.47901       70.92899       78.20327
Ca        40.19384       66.96827       72.28677
O         42.17751       65.02103       74.50833
H         43.11817       65.06177       74.20269
H         42.18137       65.46875       75.39049
O         42.36013       64.35029       71.76917
H         43.01705       63.61329       71.70260
H         41.49401       63.89912       71.91813
O         38.93269       69.14593       71.26571
H         38.03480       69.13936       70.85598
H         39.55125       69.39178       70.53406

Ca 1.0



