%chk=holoCaM-CaMKII.loop3.water2.frame182.chk
%nprocshared=20
%mem=10GB
%nosave
#b3lyp/svp scf=(tight,noincore,xqc) Test 
#IOP(5/87=12) Density=Current Pop=(MK,readradii) iop(6/33=2) iop(6/42=6)

holoCaM-CaMKII.loop3.water2.frame182 

   0  1 
C          3.43770       43.21245       19.47207
C          3.26278       42.13982       20.50477
O          2.56079       42.36403       21.47678
H          4.51584       43.45493       19.36636
H          3.04597       42.85437       18.49658
H          2.88911       44.13410       19.76150
N          3.85764       40.92780       20.32346
C          3.73824       39.78652       21.23076
C          4.69644       39.92878       22.42305
O          5.65869       39.17769       22.51558
C          4.03074       38.50273       20.41513
C          3.76354       37.22716       21.16132
O          3.99270       36.16370       20.61235
O          3.25316       37.23588       22.40810
H          4.37155       40.79204       19.43790
H          2.68726       39.69005       21.57556
H          5.08878       38.51454       20.07255
H          3.37838       38.48814       19.51489
N          4.50636       40.88852       23.37171
C          5.44229       41.12791       24.47072
C          5.43218       40.03612       25.54234
O          6.22573       40.15254       26.46662
C          5.14769       42.49344       25.13685
C          5.32024       43.66418       24.15154
C          5.06722       45.01070       24.84274
C          5.29636       46.21666       23.91416
N          4.36085       46.24707       22.78743
H          3.69219       41.50444       23.28840
H          6.47103       41.19058       24.04928
H          5.86384       42.65123       25.97377
H          4.11623       42.49261       25.55416
H          4.61395       43.54706       23.30686
H          6.35825       43.65182       23.75229
H          5.77115       45.10607       25.69848
H          4.02953       45.04164       25.24089
H          6.34224       46.20901       23.53440
H          5.15922       47.14235       24.51582
H          3.37488       46.23348       23.13590
H          4.51390       47.12814       22.24574
H          4.52475       45.44179       22.14290
N          4.58558       38.96252       25.50718
C          4.56002       37.92927       26.54797
C          5.01163       36.56638       26.03317
O          5.12170       35.65023       26.83673
C          3.16574       37.84631       27.20912
C          2.07375       37.40499       26.26971
O          1.73816       38.16368       25.21053
O          1.47090       36.36458       26.47856
H          3.93906       38.86883       24.71629
H          5.27633       38.19404       27.35588
H          2.89545       38.83722       27.63308
H          3.22381       37.12558       28.05513
N          5.32484       36.35933       24.72398
C          5.85576       35.11252       24.20902
C          4.92336       33.93733       24.37384
O          5.34881       32.93654       24.93368
H          5.23569       37.12656       24.04802
H          6.82984       34.89700       24.70144
H          6.04981       35.23492       23.12117
N          3.65841       33.96435       23.86196
C          2.78930       32.78510       23.83244
C          2.43993       32.35989       22.40289
O          1.91201       31.26778       22.24520
C          1.52600       32.97629       24.70493
C          0.58469       34.07578       24.27316
N         -0.56982       34.27876       24.94813
O          0.85057       34.78577       23.31962
H          3.32739       34.84658       23.44999
H          3.33646       31.92197       24.27049
H          1.84217       33.18254       25.75045
H          0.95626       32.02151       24.70319
H         -0.81815       33.68885       25.75540
H         -1.22127       35.02373       24.65908
N          2.69682       33.15404       21.31894
C          2.46332       32.76011       19.93703
C          1.34395       33.53721       19.26561
O          1.14196       33.33168       18.07790
H          3.08493       34.09085       21.45547
H          2.19926       31.68325       19.86141
H          3.41132       32.91023       19.37741
N          0.51129       34.35873       19.97068
C         -0.69919       34.95523       19.41431
C         -0.80321       36.42047       19.77891
O         -0.57794       36.74199       20.93731
C         -1.95184       34.26934       20.01026
C         -1.98878       32.77750       19.78148
C         -1.14720       31.92318       20.51562
C         -2.88193       32.22196       18.85111
C         -1.18737       30.54270       20.31365
C         -2.91792       30.83929       18.64659
C         -2.06924       29.99509       19.37793
O         -2.09536       28.66014       19.19371
H          0.66238       34.47018       20.97733
H         -0.75811       34.81831       18.31168
H         -2.83488       34.74058       19.52168
H         -2.04562       34.45618       21.10324
H         -0.46659       32.32194       21.25541
H         -3.54424       32.85792       18.27695
H         -0.53375       29.89904       20.88888
H         -3.60628       30.42601       17.92067
H         -2.69167       28.24069       18.55749
N         -1.29673       37.33677       18.89080
C         -1.65352       38.69556       19.30480
C         -3.16007       38.90171       19.23868
O         -3.87141       38.11131       18.63493
C         -0.88658       39.79652       18.52363
C         -1.20924       39.76450       17.00774
C          0.62041       39.67685       18.80418
C         -0.61252       40.94331       16.23700
H         -1.52035       37.03448       17.93113
H         -1.39904       38.82775       20.37546
H         -1.21951       40.78023       18.92534
H         -2.31060       39.82048       16.87033
H         -0.85012       38.81647       16.55428
H          0.80394       39.71798       19.89858
H          1.01991       38.71882       18.41056
H          1.18361       40.51803       18.35362
H          0.49515       40.92804       16.26351
H         -0.92558       40.88308       15.17334
H         -0.98005       41.90320       16.65902
N         -3.70677       39.93166       19.94083
C         -5.13337       40.20289       20.05240
C         -5.41168       41.68791       19.84413
O         -4.48936       42.45461       19.60442
C         -5.60195       39.75463       21.44995
O         -4.92596       40.46845       22.44936
H         -3.07242       40.50647       20.50415
H         -5.70836       39.61453       19.30397
H         -5.38943       38.66594       21.55428
H         -6.69744       39.90524       21.56195
H         -5.17671       40.04188       23.30966
N         -6.68211       42.16551       19.96475
C         -7.02485       43.58146       19.88225
C         -6.31496       44.38951       20.95411
O         -5.77677       45.43994       20.63410
C         -8.53825       43.76824       20.04394
H         -7.44089       41.49212       20.14809
H         -6.75524       43.97797       18.87755
H         -8.88272       43.39368       21.03162
H         -8.80024       44.84548       19.95863
H         -9.07550       43.21742       19.24293
N         -6.28959       43.96751       22.25229
C         -5.70150       44.75108       23.33559
C         -4.23922       45.08537       23.08252
O         -3.91862       46.26085       22.97211
C         -5.85296       44.01183       24.67502
H         -6.73263       43.06307       22.47908
H         -6.26934       45.70504       23.41269
H         -5.33002       43.03136       24.65560
H         -5.43355       44.62082       25.50383
H         -6.92629       43.82122       24.88641
N         -3.29070       44.10945       23.01150
C         -1.86461       44.40290       22.83934
C         -1.52120       44.99484       21.47507
O         -0.37865       45.39284       21.29072
C         -1.01417       43.14348       23.11825
C         -1.24847       42.01882       22.10198
C         -0.59260       40.75008       22.54803
O         -1.35086       39.66791       22.80067
O          0.61518       40.69251       22.70278
H         -3.59702       43.13860       23.16134
H         -1.58671       45.14742       23.61854
H         -1.28360       42.78021       24.13487
H          0.06797       43.40348       23.12648
H         -0.87430       42.31152       21.09690
H         -2.32958       41.82049       22.02761
N         -2.43500       45.07783       20.46765
C         -2.11360       45.65061       19.17879
H         -1.80767       46.71152       19.30105
H         -1.29130       45.07733       18.70098
H         -3.00501       45.61416       18.51620
H         -3.38677       44.71878       20.60106
Ca         0.15596       37.49021       23.76076
O         -2.82365       36.75486       22.97214
H         -3.25347       37.53268       23.40828
H         -3.11145       36.81069       22.02648
O         -1.69583       38.70537       25.91861
H         -0.83335       38.76142       26.40173
H         -1.91423       37.73947       25.91325

Ca 1.0



