%chk=holoCaM-CaMKII.loop2.water1.frame476.chk
%nprocshared=20
%mem=10GB
%nosave
#b3lyp/svp scf=(tight,noincore,xqc) Test 
#IOP(5/87=12) Density=Current Pop=(MK,readradii) iop(6/33=2) iop(6/42=6)

holoCaM-CaMKII.loop2.water1.frame476 

   -2  1 
C         61.45742       68.91859       74.02663
C         61.20832       70.13707       74.87158
O         61.94678       70.38298       75.81240
H         62.34806       68.35739       74.38036
H         60.57168       68.25090       74.04816
H         61.64120       69.23372       72.97551
N         60.19189       70.97805       74.54574
C         59.95097       72.25891       75.20350
C         59.42727       72.10187       76.62962
O         58.43002       71.41677       76.81196
C         58.90649       73.05322       74.38868
C         58.83164       74.50044       74.78443
O         59.73814       75.03133       75.62490
O         57.99752       75.22555       74.26883
H         59.61914       70.72948       73.72321
H         60.90054       72.83650       75.17592
H         57.91017       72.57192       74.50144
H         59.17697       73.04051       73.31136
N         60.00078       72.77565       77.67284
C         59.46768       72.76014       79.03581
C         59.06414       74.14842       79.55215
O         58.50779       74.20150       80.64082
C         60.52304       72.16985       79.97662
H         60.83892       73.33853       77.48943
H         58.56134       72.11822       79.08288
H         60.80486       71.14875       79.64518
H         61.43414       72.80833       79.97811
H         60.13409       72.10681       81.01588
N         59.36085       75.30779       78.88604
C         59.11803       76.64426       79.44175
C         58.39461       77.61003       78.49649
O         58.14907       78.73540       78.91041
C         60.46533       77.24336       79.91020
C         61.50790       77.44824       78.83743
O         62.71170       77.94301       79.17968
O         61.28983       77.17072       77.67011
H         59.88341       75.24742       78.01024
H         58.48311       76.56652       80.35179
H         60.89589       76.55956       80.67339
H         60.27739       78.22174       80.40281
N         58.00940       77.26370       77.23507
C         57.28891       78.16190       76.34048
C         58.06580       79.37302       75.83851
O         57.46180       80.15519       75.11730
H         58.16314       76.30509       76.90861
H         56.36822       78.51175       76.85634
H         56.97168       77.59171       75.44059
N         59.37416       79.62101       76.15199
C         60.06994       80.82933       75.69997
C         60.33484       80.89086       74.18805
O         60.88272       81.89270       73.74686
C         61.36704       81.07711       76.50472
C         62.49948       80.10854       76.30699
N         63.68128       80.36749       76.91086
O         62.37455       79.11497       75.60786
H         59.86805       78.98001       76.78190
H         59.42251       81.69647       75.96074
H         61.12420       81.10717       77.58947
H         61.75064       82.08124       76.22073
H         63.80130       81.20574       77.49655
H         64.48884       79.75310       76.78577
N         59.94974       79.90346       73.32517
C         60.08262       80.01953       71.87879
C         61.43561       79.61067       71.33036
O         61.58140       79.63263       70.11745
H         59.44132       79.08287       73.67805
H         59.81243       81.04825       71.55021
H         59.34674       79.33138       71.41101
N         62.46008       79.20761       72.13497
C         63.75129       78.74296       71.62606
C         64.05131       77.34172       72.14433
O         63.30767       76.83063       72.96493
C         64.86384       79.73096       72.06563
C         64.66991       81.10547       71.42219
O         64.87171       79.88550       73.46247
H         62.33175       79.22579       73.15277
H         63.74659       78.68786       70.51579
H         65.86122       79.37241       71.72181
H         65.31536       79.08345       73.84082
H         63.70203       81.55565       71.72804
H         65.48939       81.78670       71.73592
H         64.69423       81.01550       70.31500
N         65.18303       76.69008       71.74724
C         65.63868       75.44628       72.35749
C         66.77645       75.82469       73.27071
O         67.77541       76.35582       72.80553
C         66.04830       74.37578       71.29454
C         64.78096       73.85386       70.56812
C         66.81895       73.20690       71.95451
C         65.06086       72.81043       69.48043
H         65.81441       77.15645       71.07914
H         64.84448       74.99597       72.99196
H         66.73785       74.84427       70.55727
H         64.25960       74.71027       70.09074
H         64.08990       73.39683       71.31142
H         67.16918       72.47230       71.20280
H         67.74378       73.57143       72.44664
H         66.18988       72.68955       72.70722
H         64.10519       72.51609       68.99799
H         65.74081       73.22533       68.70789
H         65.50241       71.88454       69.90320
N         66.67758       75.56966       74.60472
C         67.74418       75.87460       75.54061
C         68.66875       74.68519       75.65476
O         68.40713       73.65777       75.04866
C         67.15746       76.29801       76.90450
C         66.41708       77.60167       76.77344
O         65.25778       77.68352       76.09200
O         66.87950       78.60975       77.28170
H         65.85240       75.06387       74.95982
H         68.36360       76.71364       75.15290
H         67.99787       76.45735       77.61151
H         66.49710       75.50804       77.32999
N         69.82139       74.78130       76.37498
C         70.74940       73.66730       76.50062
C         70.10949       72.50665       77.25373
O         70.24664       71.39000       76.77112
C         72.09451       74.10824       77.11587
C         73.07882       72.96107       77.15304
C         73.49572       72.32976       75.96456
C         73.58220       72.50503       78.38198
C         74.38996       71.25712       76.01115
C         74.47857       71.43344       78.42289
C         74.88027       70.80852       77.23941
H         70.05791       75.68074       76.81836
H         70.99967       73.32568       75.47176
H         71.94748       74.51785       78.13097
H         72.52821       74.92390       76.49666
H         73.12943       72.66099       75.00111
H         73.27661       72.97417       79.30868
H         74.70137       70.77284       75.09431
H         74.85931       71.08579       79.37386
H         75.57164       69.97694       77.27394
N         69.37077       72.64486       78.40324
C         68.71729       71.53222       79.08492
C         67.67708       70.76391       78.26178
O         67.16749       69.77712       78.76933
C         68.02828       72.19017       80.28730
C         68.94143       73.36274       80.56718
C         69.20699       73.87258       79.15650
H         69.52438       70.84016       79.41574
H         67.05626       72.62994       79.96085
H         67.83815       71.50874       81.14329
H         68.53105       74.12644       81.26125
H         69.89491       72.96615       80.98728
H         68.32295       74.41518       78.76415
H         70.09422       74.52665       79.18146
N         67.31519       71.14975       76.99928
C         66.36382       70.42101       76.15885
C         67.04289       69.81803       74.93527
O         66.42518       68.97785       74.29405
C         65.27615       71.37499       75.64331
C         64.49831       72.09352       76.74717
C         63.63740       73.18056       76.17194
O         63.08470       74.06489       77.00634
O         63.59073       73.39237       74.96847
H         67.72074       72.00118       76.60867
H         65.90692       69.58881       76.73593
H         64.55923       70.83356       74.98704
H         65.79352       72.14945       75.03096
H         65.22223       72.60081       77.42065
H         63.89397       71.38366       77.34915
N         68.27643       70.22210       74.51588
C         68.95793       69.68172       73.36085
H         69.94097       69.27683       73.68098
H         68.38289       68.87054       72.87032
H         69.13005       70.49553       72.62501
H         68.76889       70.97212       75.00550
Ca        63.70961       76.10888       76.41111
O         60.88915       75.78131       73.06970
H         60.13489       76.37302       72.82419
H         60.78594       74.98079       72.49723

Ca 1.0



