%chk=holoCaM-CaMKII.loop4.water2.frame232.chk
%nprocshared=20
%mem=10GB
%nosave
#b3lyp/svp scf=(tight,noincore,xqc) Test 
#IOP(5/87=12) Density=Current Pop=(MK,readradii) iop(6/33=2) iop(6/42=6)

holoCaM-CaMKII.loop4.water2.frame232 

   -3  1 
C         72.38531       23.28266       25.68902
C         72.49242       23.38397       24.19446
O         71.55639       23.85205       23.56343
H         72.22608       24.29606       26.11553
H         71.53197       22.63032       25.96388
H         73.31225       22.86334       26.13585
N         73.63005       22.99097       23.56037
C         73.84038       23.15755       22.12823
C         72.88962       22.28190       21.30382
O         72.96900       21.06439       21.38967
C         75.30297       22.80945       21.79757
C         75.69102       23.10100       20.38543
O         74.93615       23.66801       19.61605
O         76.90684       22.73553       19.96798
H         74.40377       22.62226       24.13634
H         73.68845       24.23572       21.89471
H         75.47158       21.72967       22.00117
H         75.98820       23.39555       22.44931
N         71.96228       22.85500       20.48257
C         70.96489       22.10731       19.71070
C         71.46938       21.63047       18.34078
O         70.82535       20.76634       17.76324
C         69.65315       22.94563       19.53483
C         69.86192       24.17313       18.59485
C         69.10340       23.35658       20.91589
C         68.62671       25.05664       18.41970
H         71.87324       23.86966       20.54117
H         70.69516       21.20643       20.30636
H         68.88929       22.28944       19.06169
H         70.15674       23.80928       17.58723
H         70.67041       24.82493       18.96245
H         68.97493       22.45970       21.55723
H         69.78077       24.06913       21.43055
H         68.10765       23.83376       20.82164
H         68.35423       25.54854       19.37660
H         68.85427       25.86430       17.69120
H         67.76929       24.46242       18.04309
N         72.54153       22.21056       17.72209
C         72.99891       21.87265       16.36178
C         74.44499       21.36311       16.30913
O         74.89132       21.01569       15.22357
C         72.81787       23.06698       15.38150
C         73.58988       24.30581       15.74943
O         73.64084       25.25031       14.97857
O         74.21939       24.36769       16.93217
H         73.01430       22.95918       18.23305
H         72.37574       21.04773       15.95223
H         71.74366       23.33520       15.29564
H         73.15678       22.73415       14.37413
N         75.21522       21.22040       17.42366
C         76.50920       20.55083       17.40543
C         77.70389       21.31906       16.85217
O         78.76927       20.71735       16.84141
H         74.81502       21.44692       18.34256
H         76.40115       19.58527       16.86556
H         76.77842       20.30182       18.45538
N         77.67312       22.62674       16.44301
C         78.90457       23.34362       16.04740
C         79.87109       23.59135       17.21946
O         80.90449       24.21196       17.00976
C         78.58625       24.66951       15.31451
C         77.91398       25.73547       16.12697
O         77.67557       25.57959       17.43725
O         77.48773       26.72976       15.56168
H         76.76938       23.12151       16.41613
H         79.43019       22.72699       15.28490
H         77.91743       24.41885       14.46193
H         79.51853       25.10426       14.89343
N         79.61251       23.12091       18.47127
C         80.45472       23.30937       19.63191
C         80.39349       24.71792       20.15791
O         81.43784       25.27962       20.43765
H         78.78269       22.55585       18.63723
H         81.49407       22.96806       19.43271
H         80.04958       22.67329       20.45012
N         79.18070       25.29376       20.41964
C         79.00164       26.57138       21.11541
C         77.55335       26.76808       21.56797
O         76.64969       26.06961       21.13680
C         79.37590       27.82465       20.27117
C         80.85179       27.98128       19.89666
C         81.12616       29.34884       19.32540
N         80.53707       29.75621       18.17770
O         81.89423       30.09929       19.90915
H         78.35020       24.72921       20.20684
H         79.60751       26.52725       22.04678
H         79.12957       28.72142       20.88083
H         78.74682       27.85917       19.35609
H         81.14696       27.22795       19.14039
H         81.46172       27.85891       20.81931
H         79.89208       29.13782       17.66550
H         80.73136       30.69468       17.79816
N         77.29276       27.75368       22.47244
C         75.96995       28.12464       22.94950
C         75.77925       29.60030       22.62434
O         76.58148       30.41022       23.06501
C         75.87431       27.83130       24.47559
C         74.56502       28.34522       25.09523
C         75.97809       26.31604       24.73458
H         78.08920       28.28373       22.85563
H         75.17516       27.53079       22.45406
H         76.71439       28.34219       24.99551
H         73.68687       27.85290       24.63253
H         74.55017       28.13028       26.18560
H         74.47631       29.44403       24.97529
H         75.93961       26.10520       25.82474
H         75.13625       25.77710       24.24472
H         76.93239       25.90761       24.34293
N         74.71416       30.02136       21.88154
C         74.42051       31.42207       21.60958
C         73.33390       31.84954       22.57307
O         72.97632       31.05426       23.42164
C         74.08695       31.62183       20.10786
C         72.69429       31.20300       19.69876
N         72.46305       30.06223       19.01727
O         71.75954       31.94238       19.94831
H         74.00785       29.34298       21.59448
H         75.31731       32.04263       21.82044
H         74.85205       31.08878       19.50291
H         74.17903       32.69693       19.84022
H         73.23105       29.41866       18.79573
H         71.50187       29.81606       18.73212
N         72.77938       33.08562       22.55199
C         71.79762       33.49115       23.55648
C         70.55924       32.58976       23.53354
O         70.19243       32.05178       24.56832
C         71.41375       34.96416       23.34571
C         70.69911       35.52942       24.54666
C         71.38147       35.65483       25.77175
C         69.36760       35.95743       24.45629
C         70.74299       36.20466       26.88439
C         68.72816       36.50387       25.57386
C         69.41627       36.63318       26.79049
O         68.81643       37.17066       27.87120
H         73.08932       33.75547       21.83228
H         72.29095       33.40551       24.55035
H         70.80933       35.05352       22.41709
H         72.33215       35.57583       23.20766
H         72.41420       35.33998       25.86377
H         68.82588       35.86790       23.52343
H         71.28367       36.30340       27.81788
H         67.70018       36.83096       25.49140
H         67.90414       37.49178       27.84599
N         69.90393       32.35128       22.36229
C         68.73164       31.48632       22.20720
C         68.95845       30.10074       22.80267
O         68.15189       29.67621       23.61827
C         68.37040       31.37800       20.70431
C         67.03411       30.66215       20.45449
C         66.72061       30.61467       18.98498
O         65.62125       31.23009       18.50840
O         67.45602       30.01466       18.21682
H         70.27301       32.81526       21.52347
H         67.87555       31.96411       22.73357
H         69.18823       30.85311       20.16110
H         68.28101       32.40471       20.28526
H         66.22672       31.21815       20.97904
H         67.06228       29.62342       20.84635
N         70.04977       29.35571       22.46242
C         70.33781       28.03125       23.02568
C         70.35478       28.10621       24.55085
O         69.63292       27.35134       25.18709
C         71.66982       27.46647       22.45239
C         71.56806       27.21613       20.92758
C         72.84568       26.73113       20.27656
O         72.85497       25.70573       19.62531
O         73.96623       27.46296       20.30748
H         70.72211       29.77596       21.80432
H         69.53308       27.31844       22.73638
H         71.91205       26.50176       22.94896
H         72.48310       28.18095       22.67550
H         71.28360       28.15028       20.41540
H         70.75890       26.47585       20.74712
N         71.09065       29.05262       25.19381
C         71.07944       29.27099       26.62621
H         70.69283       30.29326       26.83353
H         70.43831       28.54268       27.16316
H         72.11431       29.20305       27.02023
H         71.65335       29.69297       24.63691
Ca        75.52975       25.94472       17.79064
O         72.79477       27.31621       17.02755
H         72.31367       27.13338       16.18286
H         73.34217       28.11547       16.82762
O         76.18124       28.85880       18.25694
H         75.52851       29.03709       17.53457
H         76.94672       28.43499       17.79440

Ca 1.0



