%chk=holoCaM-CaMKII.loop4.water2.frame139.chk
%nprocshared=20
%mem=10GB
%nosave
#b3lyp/svp scf=(tight,noincore,xqc) Test 
#IOP(5/87=12) Density=Current Pop=(MK,readradii) iop(6/33=2) iop(6/42=6)

holoCaM-CaMKII.loop4.water2.frame139 

   -3  1 
C         19.00017       14.83709       67.36403
C         20.09332       13.84185       67.60567
O         21.19669       14.05035       67.12145
H         18.06336       14.54347       67.88264
H         19.31954       15.82732       67.75348
H         18.80051       14.91656       66.27624
N         19.86989       12.74141       68.37672
C         20.93400       11.80775       68.72090
C         21.45418       11.08419       67.48239
O         20.71314       10.93792       66.51986
C         20.42311       10.79483       69.76514
C         21.51111       10.14986       70.56820
O         21.20859        9.33142       71.41796
O         22.78805       10.56986       70.48697
H         18.93122       12.60757       68.78447
H         21.73816       12.42550       69.18194
H         19.77653       10.03627       69.27112
H         19.80616       11.32590       70.52313
N         22.73599       10.62672       67.43835
C         23.34676        9.98558       66.28076
C         23.78448        8.56334       66.62681
O         23.47072        7.66336       65.85987
C         24.54375       10.85009       65.77118
C         24.05397       12.28960       65.44234
C         25.20193       10.19467       64.53971
C         25.14230       13.23003       64.91882
H         23.33896       10.79231       68.24826
H         22.62348        9.92094       65.43567
H         25.31325       10.91248       66.57004
H         23.64898       12.74684       66.36931
H         23.23613       12.25314       64.68995
H         25.56637        9.17507       64.78076
H         24.48141       10.13101       63.69682
H         26.09379       10.76637       64.21293
H         25.99398       13.27862       65.62368
H         25.51390       12.90447       63.92682
H         24.71853       14.24949       64.79606
N         24.51429        8.28294       67.74998
C         25.09614        6.96505       68.02601
C         24.32425        6.12787       69.05317
O         24.73715        5.00425       69.30628
C         26.59617        7.12156       68.35850
C         26.89617        7.85977       69.63910
O         28.05815        8.05424       69.95681
O         25.91224        8.30204       70.44512
H         24.69848        9.04293       68.41767
H         25.05956        6.35303       67.09724
H         27.07906        7.66769       67.51748
H         27.06393        6.11556       68.42185
N         23.13662        6.54313       69.57834
C         22.22390        5.65314       70.28968
C         22.53962        5.37357       71.74457
O         22.58377        4.21531       72.13343
H         22.76854        7.46651       69.30904
H         22.10537        4.70456       69.71903
H         21.22589        6.14012       70.30082
N         22.65549        6.40217       72.62497
C         22.66207        6.25897       74.08365
C         21.54909        7.11675       74.71075
O         21.52491        7.24805       75.92688
C         24.07290        6.54881       74.66021
C         24.70069        7.77117       74.07577
O         24.08421        8.95074       74.17002
O         25.69852        7.66956       73.38012
H         22.67833        7.35907       72.24218
H         22.44188        5.21434       74.39692
H         24.72385        5.68784       74.39222
H         24.03982        6.60599       75.76965
N         20.54184        7.65904       73.95525
C         19.42533        8.41584       74.50744
C         19.77379        9.81411       74.97811
O         18.86758       10.49844       75.43062
H         20.49894        7.46313       72.94661
H         18.95241        7.83625       75.32924
H         18.66152        8.54889       73.70903
N         21.03418       10.32547       74.88107
C         21.38184       11.68987       75.26857
C         21.91410       12.44847       74.06563
O         22.15053       11.85403       73.02750
C         22.40363       11.64639       76.42138
C         21.74524       11.11192       77.70814
C         22.70780       10.91026       78.85212
N         22.23867       10.49717       80.05262
O         23.90591       11.10520       78.70620
H         21.78584        9.74150       74.49943
H         20.48075       12.24602       75.60843
H         22.79974       12.66350       76.63421
H         23.25151       10.99287       76.12120
H         21.25708       10.13410       77.51168
H         20.96594       11.83970       78.02498
H         21.23037       10.33472       80.19414
H         22.88049       10.34361       80.84435
N         22.02622       13.80497       74.11579
C         22.41986       14.62650       72.97469
C         23.55773       15.54133       73.39626
O         23.45240       16.21594       74.41023
C         21.18709       15.40534       72.43695
C         21.56452       16.33033       71.26688
C         20.11507       14.41603       71.93794
H         21.74242       14.28779       74.98178
H         22.76680       13.99592       72.12600
H         20.75475       16.02804       73.24992
H         22.29291       17.09840       71.59296
H         22.00040       15.74721       70.42766
H         20.66530       16.86361       70.89102
H         20.52269       13.78324       71.11865
H         19.76960       13.75090       72.75550
H         19.23001       14.96113       71.54771
N         24.66694       15.63759       72.61450
C         25.82770       16.46688       72.91592
C         25.70327       17.76978       72.13657
O         24.77169       17.90544       71.36289
C         27.07563       15.61413       72.53639
C         28.44859       16.12622       72.90767
N         29.23307       15.42408       73.75846
O         28.89036       17.14062       72.39865
H         24.66424       15.14640       71.71350
H         25.84479       16.70966       74.00016
H         27.06697       15.42897       71.44141
H         26.94677       14.62745       73.03038
H         28.90561       14.54382       74.18152
H         30.18197       15.75618       73.98605
N         26.57336       18.79859       72.30913
C         26.54211       20.00527       71.48242
C         26.81247       19.63162       70.02948
O         26.03552       19.99447       69.15703
C         27.58539       21.01207       72.01418
C         27.63570       22.31669       71.25043
C         26.49026       23.12176       71.11201
C         28.84947       22.75632       70.69457
C         26.56014       24.33975       70.42747
C         28.91861       23.97832       70.01958
C         27.77312       24.77478       69.88388
O         27.82750       25.95864       69.24059
H         27.28731       18.71823       73.04548
H         25.54135       20.48404       71.56487
H         28.58931       20.53322       72.01875
H         27.32443       21.25010       73.06842
H         25.54291       22.81344       71.53431
H         29.74847       22.16107       70.79501
H         25.67148       24.95040       70.32636
H         29.86446       24.30694       69.60765
H         28.65012       26.30174       68.86291
N         27.88807       18.85331       69.72108
C         28.24833       18.40212       68.37518
C         27.20378       17.49266       67.71268
O         27.41645       17.13753       66.56127
C         29.60477       17.65599       68.41938
C         30.75959       18.56118       68.88886
C         32.04923       17.79673       68.96163
O         32.51820       17.27882       67.96078
O         32.70074       17.68715       70.13563
H         28.49245       18.57656       70.50259
H         28.36743       19.29806       67.72636
H         29.85828       17.28623       67.40111
H         29.51242       16.77672       69.09650
H         30.55226       18.97747       69.89557
H         30.87786       19.41148       68.18333
N         26.04932       17.10777       68.33259
C         24.99530       16.34056       67.67644
C         23.83197       17.27828       67.40587
O         23.48411       17.46302       66.24793
C         24.57966       15.11773       68.52738
C         25.75759       14.15425       68.75134
C         25.35470       12.90385       69.48701
O         25.53379       11.81231       68.97432
O         24.83409       12.96695       70.72463
H         25.86758       17.41240       69.29021
H         25.34005       15.95681       66.69054
H         23.76514       14.57885       67.99768
H         24.18748       15.45411       69.50756
H         26.55487       14.66579       69.32497
H         26.18036       13.86447       67.77051
N         23.22440       17.95279       68.42161
C         22.19307       18.95142       68.22872
H         21.27873       18.65480       68.78185
H         22.55393       19.92270       68.63246
H         21.93756       19.09796       67.15894
H         23.52488       17.78173       69.38481
Ca        24.08708        9.98896       72.20249
O         25.41859       12.09357       74.15679
H         25.25048       11.48062       74.91521
H         26.12692       12.70136       74.48576
O         27.34846       10.97205       71.90708
H         27.68894       10.75023       71.00425
H         28.03782       10.62187       72.52567

Ca 1.0



