%chk=holoCaM-CaMKII.loop3.water1.frame418.chk
%nprocshared=20
%mem=10GB
%nosave
#b3lyp/svp scf=(tight,noincore,xqc) Test 
#IOP(5/87=12) Density=Current Pop=(MK,readradii) iop(6/33=2) iop(6/42=6)

holoCaM-CaMKII.loop3.water1.frame418 

   0  1 
C         61.31383       66.59560       33.60299
C         60.92717       66.22084       35.00179
O         61.61470       66.62802       35.92733
H         62.33095       66.21432       33.37936
H         60.60103       66.17990       32.86038
H         61.30947       67.70268       33.50946
N         59.81668       65.46431       35.23311
C         59.33315       65.14211       36.56634
C         59.28177       63.62817       36.74638
O         58.59650       62.94893       35.99500
C         57.97544       65.84197       36.74975
C         57.41781       65.75053       38.13222
O         56.30567       66.43592       38.43625
O         57.96716       65.08682       38.98933
H         59.25627       65.14159       34.42899
H         60.01682       65.57056       37.33223
H         57.22979       65.45245       36.02419
H         58.13049       66.92476       36.54846
N         60.04374       63.03761       37.71157
C         60.19508       61.59090       37.88287
C         58.89654       60.88315       38.26521
O         58.74336       59.72497       37.90351
C         61.33065       61.33913       38.90226
C         61.75873       59.87499       39.08240
C         63.03836       59.82222       39.93721
C         63.51624       58.38813       40.19229
N         64.78120       58.38941       40.93048
H         60.61148       63.65622       38.31212
H         60.53920       61.17600       36.90857
H         61.04909       61.76162       39.89142
H         62.21774       61.89714       38.52447
H         61.97924       59.42316       38.09042
H         60.94070       59.30095       39.56838
H         62.85966       60.32014       40.91556
H         63.84335       60.37470       39.40241
H         63.66368       57.86046       39.22415
H         62.74402       57.84318       40.77892
H         65.06771       57.40366       41.12828
H         65.52836       58.84671       40.35784
H         64.67508       58.90030       41.83707
N         57.92737       61.50489       38.99673
C         56.65285       60.87702       39.37381
C         55.44010       61.62678       38.82744
O         54.33431       61.13834       39.01945
C         56.55600       60.73087       40.91141
C         56.95668       61.98999       41.61849
O         56.37510       63.16806       41.33632
O         57.93431       61.97393       42.35047
H         58.10571       62.46998       39.30878
H         56.57735       59.85349       38.94569
H         57.26389       59.93328       41.22747
H         55.53656       60.41232       41.21738
N         55.54788       62.79080       38.12665
C         54.40634       63.47951       37.55086
C         53.38213       63.89091       38.58356
O         52.23652       63.48277       38.45089
H         56.47134       63.20260       37.95381
H         53.92810       62.81675       36.79517
H         54.75811       64.39128       37.02186
N         53.70835       64.72171       39.61822
C         52.71995       65.20892       40.58354
C         52.52856       66.71941       40.50222
O         51.65021       67.22542       41.18633
C         53.08047       64.76172       42.01777
C         54.23210       65.52744       42.63250
N         54.07775       66.17671       43.81029
O         55.31221       65.56277       42.07101
H         54.68653       65.02689       39.70657
H         51.73292       64.75543       40.34988
H         53.31277       63.67486       42.00402
H         52.18674       64.90058       42.66410
H         53.18013       66.15971       44.31571
H         54.86787       66.68860       44.22800
N         53.30924       67.50499       39.70292
C         53.13927       68.94020       39.57190
C         54.32250       69.72938       40.09297
O         54.29484       70.94195       39.93158
H         54.05968       67.08750       39.14190
H         52.23523       69.29906       40.10408
H         53.00420       69.16427       38.49000
N         55.40254       69.14557       40.69993
C         56.56925       69.93348       41.10440
C         57.82299       69.09173       41.22595
O         57.73992       67.87010       41.22878
C         56.28615       70.77257       42.38278
C         56.14848       69.98417       43.67859
C         57.26147       69.33854       44.25398
C         54.91833       69.93518       44.36119
C         57.14667       68.66087       45.47037
C         54.80536       69.25059       45.57908
C         55.91769       68.61267       46.13757
O         55.79676       67.96413       47.31430
H         55.42669       68.12070       40.79164
H         56.78582       70.62482       40.25896
H         55.36239       71.36185       42.20417
H         57.10309       71.51001       42.53366
H         58.23161       69.37128       43.78312
H         54.04477       70.42963       43.95673
H         58.01819       68.17939       45.89719
H         53.85337       69.22075       46.09425
H         56.54524       67.51619       47.73516
N         59.04510       69.69906       41.27027
C         60.29175       68.94519       41.33454
C         61.17822       69.40725       42.47992
O         60.92860       70.43913       43.08827
C         61.04603       69.00609       39.97082
C         61.45078       70.45192       39.58048
C         60.19413       68.33332       38.87770
C         62.33291       70.51711       38.33074
H         59.09023       70.72744       41.20136
H         60.06752       67.87599       41.54025
H         61.97658       68.41406       40.07173
H         62.03799       70.89946       40.41048
H         60.54850       71.07809       39.41416
H         60.74821       68.25475       37.92298
H         59.93390       67.29876       39.18391
H         59.25510       68.89821       38.69771
H         62.62637       71.57105       38.14139
H         63.25449       69.91417       38.47833
H         61.79546       70.15462       37.43165
N         62.24757       68.63945       42.82166
C         63.23167       68.95871       43.84689
C         64.62679       68.91524       43.22985
O         64.73776       68.72796       42.02876
C         63.09488       67.93533       44.98788
O         63.34403       66.63799       44.51928
H         62.36891       67.74482       42.32880
H         63.05474       69.96874       44.27777
H         62.05930       67.99623       45.39245
H         63.80471       68.18109       45.80722
H         63.24126       66.03846       45.30322
N         65.74671       69.04484       43.99339
C         67.09825       68.90270       43.45165
C         67.29919       67.53214       42.82023
O         67.75250       67.46055       41.68673
C         68.13658       69.09781       44.56087
H         65.63640       69.21859       45.00361
H         67.28051       69.69152       42.68731
H         69.16184       69.00886       44.14042
H         68.02893       70.10942       45.00580
H         68.01084       68.33756       45.36121
N         66.95560       66.40157       43.50078
C         67.13689       65.04399       42.98771
C         66.51021       64.86090       41.61998
O         67.18245       64.39775       40.70928
C         66.51188       64.03403       43.96322
H         66.52479       66.51747       44.43163
H         68.22364       64.82069       42.91236
H         65.42012       64.21628       44.07633
H         66.65852       62.99633       43.59389
H         66.98647       64.12130       44.96304
N         65.21565       65.20996       41.41379
C         64.51068       65.02404       40.14709
C         65.21674       65.78715       39.04248
O         65.62472       65.17489       38.06502
C         63.04111       65.46804       40.30655
C         62.33838       64.58937       41.35834
C         60.96380       65.05291       41.70929
O         60.68647       65.32550       42.86682
O         59.99233       65.01116       40.79312
H         64.72105       65.64102       42.20822
H         64.50469       63.94225       39.88025
H         62.49592       65.39083       39.33932
H         63.03422       66.52337       40.62626
H         62.90788       64.55548       42.30592
H         62.27907       63.54779       40.97776
N         65.44321       67.12211       39.15593
C         66.18986       67.87136       38.17090
H         67.21323       67.44810       38.07420
H         65.67454       67.83458       37.18924
H         66.28017       68.93082       38.49371
H         65.10381       67.61899       39.98507
Ca        57.93853       64.74186       41.64789
O         57.62931       65.56398       44.37354
H         58.26964       66.29709       44.19057
H         57.33834       65.70681       45.30826

Ca 1.0



