%chk=holoCaM.loop3.water3.frame270.chk
%nprocshared=20
%mem=10GB
%nosave
#b3lyp/svp scf=(tight,noincore,xqc) Test 
#IOP(5/87=12) Density=Current Pop=(MK,readradii) iop(6/33=2) iop(6/42=6)

holoCaM.loop3.water3.frame270 

   0  1 
C         38.77039      -12.32833       75.02603
C         39.26672      -12.38789       73.61557
O         40.39569      -12.80430       73.39512
H         37.87224      -12.97410       75.12613
H         39.54924      -12.68841       75.73153
H         38.50292      -11.28278       75.28250
N         38.45244      -12.00556       72.59348
C         38.85736      -12.10673       71.20013
C         40.02604      -11.16053       70.92157
O         39.85924       -9.95260       71.01188
C         37.64792      -11.83608       70.28410
C         37.89686      -12.14977       68.84028
O         39.08069      -12.62503       68.41719
O         36.99455      -11.99819       68.03929
H         37.49727      -11.68703       72.82130
H         39.15180      -13.16218       71.03702
H         37.32310      -10.77860       70.38843
H         36.80781      -12.49069       70.60461
N         41.26035      -11.66509       70.64102
C         42.46653      -10.85416       70.46977
C         42.44107      -10.02309       69.19128
O         43.10707       -8.99896       69.14130
C         43.72300      -11.75927       70.41394
C         43.93583      -12.60437       71.69118
C         45.12159      -13.57659       71.56254
C         46.48831      -12.87784       71.48813
N         47.56034      -13.85762       71.31289
H         41.35650      -12.68515       70.61200
H         42.57666      -10.18056       71.34813
H         44.61069      -11.11091       70.26100
H         43.63230      -12.44332       69.53993
H         43.04183      -13.23415       71.87395
H         44.07113      -11.94590       72.57651
H         44.96995      -14.21032       70.66172
H         45.12580      -14.24352       72.45299
H         46.65613      -12.30664       72.42853
H         46.52374      -12.16871       70.63597
H         48.48072      -13.36166       71.30460
H         47.55414      -14.55224       72.09456
H         47.43893      -14.35426       70.39985
N         41.81648      -10.49235       68.07696
C         41.87956       -9.86119       66.75448
C         40.49627       -9.50222       66.19927
O         40.43879       -9.00172       65.08374
C         42.68067      -10.76164       65.77001
C         42.10776      -12.13447       65.56869
O         42.63038      -12.92038       64.79559
O         41.01365      -12.48779       66.24936
H         41.30978      -11.37607       68.17878
H         42.44653       -8.90646       66.80871
H         43.71652      -10.87967       66.15305
H         42.73719      -10.25512       64.78152
N         39.34962       -9.65228       66.92831
C         38.05634       -9.16673       66.46566
C         37.40448       -9.95649       65.34361
O         36.38804       -9.47727       64.85882
H         39.40144      -10.00145       67.89374
H         38.18091       -8.10877       66.14174
H         37.33822       -9.16200       67.31370
N         37.87777      -11.15229       64.87163
C         37.24048      -11.82975       63.73482
C         35.80420      -12.30204       63.99893
O         35.17564      -12.77035       63.06065
C         38.14065      -12.95576       63.14985
C         38.29636      -14.29909       63.89628
N         37.75415      -15.44270       63.17929
O         37.86248      -14.29919       65.21316
H         38.73632      -11.54931       65.27789
H         37.19192      -11.06978       62.92281
H         39.16139      -12.53408       63.02456
H         37.78948      -13.18721       62.12158
H         38.26980      -15.53956       62.27698
H         37.96485      -16.30140       63.73909
N         35.22244      -12.21991       65.23496
C         33.86401      -12.65577       65.53944
C         33.84415      -13.89827       66.41434
O         32.76225      -14.37246       66.73109
H         35.76386      -11.85613       66.02308
H         33.31179      -12.91216       64.60994
H         33.32213      -11.82222       66.03506
N         35.00004      -14.53687       66.74875
C         35.07420      -15.87444       67.31453
C         36.14576      -15.95314       68.38206
O         37.24405      -15.45208       68.17529
C         35.46235      -16.82845       66.16918
C         34.35531      -16.90977       65.14515
C         34.48812      -16.29368       63.89191
C         33.16910      -17.59916       65.44485
C         33.45859      -16.36553       62.95202
C         32.14191      -17.68063       64.50001
C         32.28433      -17.06257       63.24889
O         31.30272      -17.13038       62.32776
H         35.88750      -14.13940       66.43325
H         34.09849      -16.21697       67.72543
H         35.67194      -17.85486       66.54276
H         36.39976      -16.45305       65.70497
H         35.37627      -15.74118       63.64589
H         33.04573      -18.08223       66.40623
H         33.57533      -15.87726       61.99256
H         31.23739      -18.22364       64.74162
H         30.47698      -17.60765       62.49083
N         35.92927      -16.70294       69.49572
C         36.95388      -16.98257       70.49187
C         37.33916      -18.44165       70.33570
O         36.46401      -19.29513       70.40478
C         36.41904      -16.71168       71.92884
C         35.89259      -15.26319       72.07148
C         37.52305      -16.99589       72.97168
C         35.17230      -15.02013       73.40109
H         35.02044      -17.18174       69.59799
H         37.85313      -16.34488       70.32982
H         35.56747      -17.40551       72.10889
H         35.14673      -15.06418       71.27315
H         36.72742      -14.53894       71.95672
H         38.37748      -16.29964       72.83063
H         37.14775      -16.89276       74.00775
H         37.89361      -18.03531       72.88448
H         35.85347      -15.12825       74.26800
H         34.76663      -13.98770       73.41991
H         34.32615      -15.73310       73.50989
N         38.64064      -18.80404       70.16753
C         39.07088      -20.19463       70.09868
C         39.65052      -20.60254       71.43532
O         39.68632      -19.79079       72.34747
C         40.10081      -20.38224       68.96741
O         41.29363      -19.70320       69.26953
H         39.36388      -18.07285       70.19934
H         38.20583      -20.86071       69.88984
H         39.66638      -20.04445       67.99769
H         40.34546      -21.45744       68.83818
H         41.43354      -19.01636       68.57072
N         40.12254      -21.86036       71.62997
C         40.76872      -22.27396       72.86895
C         42.03436      -21.46079       73.10562
O         42.22324      -20.96415       74.20720
C         41.10227      -23.76476       72.81302
H         40.03756      -22.54174       70.85965
H         40.06596      -22.13753       73.72276
H         41.55944      -24.08482       73.77340
H         40.16655      -24.34708       72.66453
H         41.80097      -23.98685       71.97986
N         42.92425      -21.25004       72.08818
C         44.16943      -20.48304       72.21825
C         43.98638      -19.00871       72.59162
O         44.98764      -18.32853       72.76982
C         44.94189      -20.54171       70.89350
H         42.70865      -21.67714       71.17361
H         44.78628      -20.96737       73.00615
H         45.12948      -21.59698       70.60510
H         44.35517      -20.04788       70.08721
H         45.92212      -20.02741       70.98693
N         42.75782      -18.44941       72.74395
C         42.51148      -17.06570       73.11795
C         42.05081      -17.04486       74.56489
O         42.65371      -16.33204       75.35564
C         41.49332      -16.45250       72.13158
C         42.08397      -16.40168       70.70757
C         41.08733      -15.93130       69.68627
O         40.81542      -16.62652       68.72295
O         40.50225      -14.73457       69.80538
H         41.92941      -19.02765       72.60331
H         43.44092      -16.45336       73.06771
H         41.23055      -15.41925       72.44957
H         40.56739      -17.06585       72.13585
H         42.43708      -17.41085       70.40677
H         42.95646      -15.71446       70.70382
N         41.05822      -17.87075       75.00587
C         40.68563      -17.99566       76.40188
H         39.60117      -17.79954       76.51971
H         40.90115      -19.03262       76.74140
H         41.24940      -17.30052       77.05908
H         40.57794      -18.49073       74.34146
Ca        39.84877      -14.34597       66.19645
O         41.19013      -16.04413       63.95470
H         40.95478      -15.43290       63.21264
H         41.75696      -15.49714       64.55336
O         42.95116      -15.46804       66.98853
H         43.44778      -14.61197       66.98662
H         43.40185      -16.01556       67.67935
O         39.19022      -17.41805       66.31203
H         39.72527      -17.78342       65.56359
H         38.67481      -18.19214       66.65068

Ca 1.0



