%chk=holoCaM.loop1.water2.frame117.chk
%nprocshared=20
%mem=10GB
%nosave
#b3lyp/svp scf=(tight,noincore,xqc) Test 
#IOP(5/87=12) Density=Current Pop=(MK,readradii) iop(6/33=2) iop(6/42=6)

holoCaM.loop1.water2.frame117 

   0  1 
C         18.86254        7.24080       -3.95326
C         20.04775        8.10136       -4.24946
O         20.68346        7.88452       -5.27171
H         18.11785        7.35168       -4.76924
H         19.18950        6.18196       -3.89570
H         18.38846        7.52512       -2.99160
N         20.39478        9.12401       -3.41698
C         21.52939        9.98382       -3.70390
C         22.81343        9.19757       -3.49271
O         23.17900        8.91828       -2.35905
C         21.45639       11.25993       -2.85091
C         22.44815       12.30997       -3.24057
O         22.36754       13.50753       -2.65001
O         23.28315       12.12098       -4.10958
H         19.80609        9.32121       -2.59284
H         21.43007       10.31290       -4.76461
H         21.56642       11.02142       -1.77033
H         20.45165       11.71068       -3.00533
N         23.48090        8.71207       -4.57128
C         24.63409        7.82606       -4.49052
C         25.84087        8.56026       -3.92203
O         26.31635        8.18524       -2.85970
C         24.87955        7.23403       -5.90259
C         25.94992        6.14549       -6.04160
C         25.69169        4.92868       -5.13419
C         26.59831        3.73435       -5.47918
N         26.16668        3.05318       -6.70524
H         23.07272        8.89809       -5.49521
H         24.35997        6.98176       -3.82039
H         25.11725        8.04954       -6.61919
H         23.92118        6.77748       -6.23995
H         26.96117        6.55727       -5.83500
H         25.91929        5.84097       -7.10768
H         24.63273        4.59377       -5.19265
H         25.90079        5.24510       -4.09013
H         26.54434        2.99840       -4.64710
H         27.65445        4.07202       -5.56788
H         26.12106        3.70195       -7.52069
H         26.84354        2.28906       -6.92972
H         25.22418        2.62343       -6.55355
N         26.38934        9.61860       -4.58474
C         27.54975       10.37236       -4.09238
C         27.27138       11.19754       -2.83241
O         28.23043       11.70660       -2.26712
C         28.15255       11.26030       -5.20960
C         27.11116       12.06965       -5.93434
O         26.93061       11.86418       -7.12436
O         26.28503       12.91233       -5.28545
H         25.98268        9.85974       -5.49853
H         28.34215        9.63946       -3.81853
H         28.62508       10.58284       -5.95727
H         28.95744       11.91088       -4.80567
N         26.02208       11.35870       -2.30963
C         25.77205       12.02112       -1.03557
C         26.18224       13.47956       -0.99802
O         27.01678       13.82986       -0.17609
H         25.21273       10.94763       -2.79260
H         26.31543       11.46614       -0.23872
H         24.68735       11.96592       -0.80204
N         25.60522       14.39166       -1.83028
C         25.90504       15.82769       -1.78734
C         24.67576       16.69288       -1.48245
O         24.83263       17.90470       -1.39815
C         26.62702       16.26150       -3.08440
C         25.88897       16.04522       -4.37904
O         26.42766       16.36138       -5.42677
O         24.66460       15.49419       -4.41453
H         24.92512       14.04262       -2.51737
H         26.62076       16.04171       -0.96426
H         27.57973       15.69297       -3.14931
H         26.88191       17.34113       -3.00781
N         23.43403       16.16038       -1.29293
C         22.24082       16.93126       -0.97375
C         21.24911       16.99138       -2.12360
O         20.16002       17.50057       -1.91857
H         23.31036       15.14858       -1.36291
H         22.48606       17.98220       -0.70791
H         21.76103       16.46735       -0.08460
N         21.59623       16.58810       -3.38237
C         20.74847       16.77648       -4.55883
C         20.63467       15.49488       -5.38390
O         21.50983       14.64762       -5.32356
C         21.33573       17.93447       -5.42442
C         21.10101       19.28777       -4.74896
O         22.72105       17.80285       -5.62932
H         22.54125       16.22976       -3.53943
H         19.71563       17.06021       -4.26355
H         20.82101       17.97521       -6.40950
H         22.92052       16.84926       -5.78195
H         21.59142       19.33018       -3.75364
H         21.52228       20.10024       -5.37948
H         20.01243       19.47029       -4.62848
N         19.56054       15.32748       -6.21753
C         19.37654       14.18191       -7.10761
C         19.36989       14.68277       -8.54888
O         18.47391       15.41437       -8.94091
C         18.07361       13.39742       -6.71973
C         18.34494       12.58534       -5.42116
C         17.57958       12.46511       -7.84495
C         17.15278       11.77086       -4.90927
H         18.83700       16.06029       -6.23496
H         20.22764       13.47349       -7.01690
H         17.25340       14.13009       -6.55117
H         18.65404       13.28241       -4.61414
H         19.18190       11.87277       -5.60130
H         16.61720       11.98498       -7.57777
H         17.35938       13.03777       -8.76723
H         18.32032       11.67860       -8.06081
H         16.28812       12.43391       -4.70183
H         16.85446       10.98394       -5.63277
H         17.44174       11.24794       -3.97296
N         20.37596       14.30111       -9.39180
C         20.44358       14.63351      -10.81608
C         19.38421       13.86032      -11.58964
O         18.65471       13.08773      -10.99335
C         21.84979       14.26185      -11.38367
C         22.95868       15.08133      -10.72434
O         22.09609       12.89540      -11.18392
H         21.13221       13.73210       -8.99574
H         20.29355       15.72663      -10.95568
H         21.87921       14.48402      -12.47195
H         22.98092       12.68728      -11.58204
H         22.77828       16.16768      -10.85982
H         23.00604       14.83451       -9.65164
H         23.94059       14.82677      -11.17707
N         19.27164       13.98027      -12.93976
C         18.41683       13.10917      -13.74834
C         18.89747       11.66304      -13.65517
O         18.08221       10.76666      -13.49872
C         18.41485       13.54114      -15.23517
C         17.79294       14.92838      -15.42221
O         19.72195       13.53145      -15.75308
H         19.86184       14.67790      -13.41775
H         17.36122       13.16916      -13.39731
H         17.77663       12.81018      -15.78923
H         19.65317       13.29838      -16.71565
H         16.75158       14.93417      -15.03471
H         18.37746       15.70812      -14.89209
H         17.76482       15.18288      -16.50250
N         20.23131       11.38558      -13.73226
C         20.81471       10.04210      -13.69881
C         20.36191        9.29976      -12.45151
O         19.81753        8.20928      -12.55479
C         22.36964       10.12847      -13.70378
C         22.95643       10.83558      -14.94761
C         24.46660       11.11851      -14.81868
C         25.37727        9.88126      -14.77763
N         25.33590        9.13018      -16.03283
H         20.86390       12.19335      -13.78655
H         20.49092        9.47266      -14.59778
H         22.79243        9.10266      -13.64005
H         22.69474       10.68474      -12.80050
H         22.49492       11.83320      -15.07038
H         22.72433       10.25941      -15.86654
H         24.63255       11.71318      -13.89276
H         24.78360       11.75098      -15.67654
H         25.11252        9.22134      -13.92449
H         26.41989       10.23565      -14.61413
H         24.38703        8.72341      -16.18882
H         25.59284        9.75423      -16.83265
H         26.02881        8.34903      -15.98427
N         20.55355        9.86582      -11.23261
C         20.17524        9.27136       -9.95571
C         18.67585        9.01819       -9.92144
O         18.26998        7.88896       -9.68420
C         20.68028       10.18389       -8.79847
C         22.22555       10.20529       -8.80838
C         22.88975       11.05923       -7.76632
O         23.69844       10.54703       -7.01434
O         22.74822       12.39677       -7.73028
H         20.98300       10.79630      -11.22313
H         20.68299        8.28809       -9.83275
H         20.33186        9.78507       -7.82018
H         20.29334       11.21590       -8.92827
H         22.60580       10.56863       -9.78170
H         22.58030        9.15853       -8.67929
N         17.79488       10.00766      -10.21696
C         16.36494        9.79752      -10.28026
H         15.85939       10.73936      -10.58635
H         16.12955        9.01683      -11.03568
H         15.97781        9.48884       -9.28766
H         18.15606       10.93423      -10.44471
Ca        24.40890       13.30994       -6.48978
O         23.87278       15.96963       -7.77388
H         24.77596       16.12243       -7.40515
H         23.60882       16.83839       -8.16861
O         25.78309       14.03914       -9.19400
H         26.46760       14.07608       -8.47971
H         25.60657       13.07370       -9.32583

Ca 1.0



