%chk=holoCaM.loop1.water2.frame432.chk
%nprocshared=20
%mem=10GB
%nosave
#b3lyp/svp scf=(tight,noincore,xqc) Test 
#IOP(5/87=12) Density=Current Pop=(MK,readradii) iop(6/33=2) iop(6/42=6)

holoCaM.loop1.water2.frame432 

   0  1 
C         81.35354       96.99423       57.79502
C         80.50330       97.98417       58.52748
O         80.23856       97.76158       59.70104
H         82.32900       96.89347       58.31499
H         80.84134       96.00867       57.78880
H         81.53344       97.31026       56.74712
N         80.01751       99.09378       57.89661
C         79.16626      100.06189       58.56822
C         77.78527      100.02509       57.94017
O         77.64287      100.30344       56.75699
C         79.77196      101.47211       58.49117
C         79.04670      102.44009       59.38632
O         79.35727      103.61839       59.37353
O         78.08857      102.01830       60.23849
H         80.23417       99.24266       56.89885
H         79.09069       99.79758       59.64570
H         79.74300      101.82880       57.43740
H         80.83248      101.45155       58.82263
N         76.72022       99.64613       58.69378
C         75.36572       99.50010       58.17374
C         74.71893      100.83757       57.80645
O         73.61917      100.80605       57.27101
C         74.45456       98.81531       59.22933
C         74.97571       97.45234       59.73287
C         74.01915       96.85998       60.78007
C         74.57567       95.60287       61.47342
N         74.81728       94.50111       60.54246
H         76.90991       99.39442       59.66793
H         75.41246       98.84686       57.27395
H         73.44388       98.66351       58.78967
H         74.35367       99.49582       60.10457
H         75.96317       97.57246       60.22039
H         75.08715       96.75726       58.87440
H         73.03955       96.63403       60.30563
H         73.85177       97.61622       61.57876
H         73.83705       95.27524       62.23844
H         75.52130       95.85256       62.00326
H         75.12984       93.66477       61.08705
H         73.93877       94.26277       60.02852
H         75.57522       94.74960       59.86783
N         75.28060      102.04115       58.13833
C         74.58498      103.31943       57.98290
C         75.37180      104.34615       57.17872
O         74.85413      105.43892       56.98626
C         74.33525      103.90068       59.38550
C         73.57799      102.94763       60.26536
O         72.44141      102.61119       59.97691
O         74.15823      102.45147       61.37390
H         76.18630      102.06053       58.62145
H         73.60423      103.17581       57.47914
H         73.77770      104.86018       59.32686
H         75.31943      104.10560       59.84395
N         76.62384      104.10229       56.69623
C         77.39154      105.10033       55.96713
C         77.86907      106.27851       56.80888
O         78.53853      107.13126       56.24238
H         77.05349      103.17469       56.81692
H         76.79317      105.46521       55.10363
H         78.30494      104.61297       55.56197
N         77.60940      106.40442       58.14844
C         78.12751      107.51642       58.95383
C         79.65065      107.43394       59.17369
O         80.18616      108.32573       59.81706
C         77.34419      107.64807       60.29196
C         77.47931      106.44522       61.16627
O         76.42031      105.67106       61.44553
O         78.57326      106.11100       61.57155
H         77.01806      105.70490       58.61487
H         77.90985      108.46481       58.41403
H         76.26818      107.79262       60.05233
H         77.69097      108.54208       60.85362
N         80.41898      106.43128       58.64327
C         81.87332      106.40614       58.71272
C         82.45508      105.78611       59.96942
O         83.67446      105.70855       60.03216
H         79.98924      105.71434       58.04798
H         82.27856      107.42831       58.54276
H         82.24318      105.77744       57.87349
N         81.68960      105.32408       61.00262
C         82.25808      104.70159       62.20107
C         81.56231      103.38945       62.55981
O         80.55578      103.03594       61.96309
C         82.22934      105.68235       63.39937
C         83.08378      106.93298       63.14219
O         80.91433      106.03447       63.74650
H         80.67614      105.43639       60.94945
H         83.32453      104.44636       62.01369
H         82.68413      105.18065       64.27969
H         80.57990      106.67281       63.06514
H         84.13201      106.63931       62.91917
H         82.68749      107.52021       62.28707
H         83.08386      107.57871       64.04510
N         82.10474      102.59564       63.52702
C         81.59860      101.28880       63.94207
C         81.37795      101.29484       65.45434
O         82.26716      101.68990       66.19581
C         82.61295      100.19815       63.47627
C         82.54838      100.09935       61.92282
C         82.32645       98.82390       64.11634
C         83.59505       99.18088       61.29538
H         82.98424      102.90887       63.96632
H         80.62891      101.04795       63.45301
H         83.63256      100.50561       63.79814
H         82.70506      101.10302       61.47606
H         81.53679       99.74673       61.61647
H         81.32823       98.44893       63.82281
H         83.08854       98.07746       63.81715
H         82.37992       98.88475       65.22298
H         83.47868       98.13144       61.63002
H         83.47029       99.19317       60.19099
H         84.61427       99.54435       61.54173
N         80.21518      100.80328       65.97165
C         79.88319      100.74463       67.39585
C         79.88326       99.29961       67.87441
O         80.23447       98.41168       67.11259
C         78.47930      101.38333       67.63062
C         78.45216      102.87948       67.31042
O         77.47742      100.68574       66.92518
H         79.53240      100.39960       65.31645
H         80.63253      101.28984       68.01032
H         78.21041      101.32837       68.70439
H         77.44349      101.02706       65.99462
H         79.17734      103.41851       67.95572
H         78.71378      103.05044       66.24974
H         77.43528      103.28377       67.50837
N         79.47363       98.99391       69.13902
C         79.27439       97.62904       69.62402
C         78.23393       96.90915       68.77366
O         78.40129       95.73043       68.49612
C         78.79026       97.62223       71.09871
C         79.82011       98.22838       72.05873
O         77.57414       98.31958       71.21311
H         79.23131       99.76937       69.76992
H         80.23477       97.06664       69.58431
H         78.64588       96.55360       71.39049
H         77.06998       97.90856       71.96314
H         80.00429       99.29965       71.83787
H         79.44333       98.15416       73.10098
H         80.78070       97.67605       71.99161
N         77.12043       97.57021       68.34090
C         76.05240       96.94526       67.55702
C         76.53160       96.46609       66.18998
O         75.80006       95.73324       65.53867
C         74.89248       97.95091       67.32073
C         74.28975       98.56090       68.60173
C         73.51797       97.55076       69.45888
C         73.13233       98.12759       70.83339
N         72.34381       99.35765       70.74153
H         77.03868       98.56278       68.59396
H         75.68689       96.06507       68.12706
H         74.07932       97.47466       66.72955
H         75.29955       98.79276       66.71684
H         73.58866       99.36621       68.29473
H         75.07885       99.03787       69.21325
H         74.14398       96.65824       69.66134
H         72.61269       97.22308       68.90201
H         74.05949       98.33376       71.41405
H         72.55038       97.35592       71.38348
H         72.06449       99.64926       71.70595
H         72.91590      100.13078       70.33189
H         71.48488       99.20011       70.16763
N         77.71424       96.89450       65.66609
C         78.21042       96.54654       64.34167
C         79.56459       95.84123       64.42072
O         80.07635       95.46087       63.37698
C         78.33644       97.84832       63.51656
C         77.00266       98.61292       63.44231
C         77.15484       99.95419       62.78894
O         78.00198      100.86716       63.29849
O         76.46343      100.25003       61.83180
H         78.27087       97.56501       66.19964
H         77.50412       95.85845       63.82762
H         78.70165       97.62609       62.48929
H         79.08017       98.49819       64.01968
H         76.62291       98.80996       64.46484
H         76.25197       98.00065       62.89885
N         80.20754       95.63261       65.60999
C         81.49211       94.97608       65.73625
H         82.21987       95.68315       66.18882
H         81.38812       94.09895       66.40990
H         81.89228       94.62975       64.76198
H         79.79196       95.95387       66.48895
Ca        77.10793      103.54564       61.54957
O         77.94153      104.50864       64.32974
H         78.06456      105.13249       65.08836
H         78.71003      104.68761       63.73433
O         75.46054      102.76498       64.24589
H         75.27544      102.22737       65.05599
H         74.56516      103.00606       63.89997

Ca 1.0



