%chk=holoCaM.loop3.water1.frame20.chk
%nprocshared=20
%mem=10GB
%nosave
#b3lyp/svp scf=(tight,noincore,xqc) Test 
#IOP(5/87=12) Density=Current Pop=(MK,readradii) iop(6/33=2) iop(6/42=6)

holoCaM.loop3.water1.frame20 

   0  1 
C         62.97930       20.58499       40.21000
C         63.00662       21.97911       39.66120
O         63.11598       22.92642       40.42712
H         62.02872       20.08999       39.92183
H         63.83163       20.00791       39.79241
H         63.06238       20.59361       41.31734
N         62.92874       22.17496       38.31705
C         62.99450       23.49472       37.70422
C         61.80239       24.33379       38.14578
O         60.66804       23.90356       37.99178
C         63.10208       23.35568       36.17582
C         63.54466       24.63614       35.53039
O         62.75502       25.71905       35.49902
O         64.65621       24.69963       35.04209
H         62.85845       21.34311       37.70955
H         63.94910       23.96628       38.03486
H         62.16385       22.97378       35.72007
H         63.90533       22.61064       35.97514
N         62.01270       25.53362       38.75308
C         60.97435       26.35388       39.38153
C         59.86283       26.79227       38.42738
O         58.83461       27.25006       38.90528
C         61.67772       27.58026       40.01805
C         60.89005       28.47530       40.98031
C         60.39240       27.70039       42.20599
C         59.97290       28.65428       43.33078
N         59.46465       27.90823       44.48084
H         62.98956       25.84165       38.83546
H         60.52205       25.71961       40.17389
H         62.07246       28.21492       39.19605
H         62.54893       27.20802       40.60383
H         60.04836       28.99595       40.47662
H         61.61269       29.25219       41.31923
H         61.21141       27.06132       42.60337
H         59.54328       27.04988       41.90517
H         59.19297       29.36052       42.97199
H         60.86348       29.24548       43.64640
H         60.17529       27.21325       44.80765
H         59.26254       28.57507       45.26014
H         58.58220       27.41274       44.21788
N         60.01404       26.72461       37.07328
C         59.01817       27.19457       36.11419
C         58.91567       26.30792       34.86091
O         58.11508       26.63542       33.99510
C         59.31376       28.66896       35.77773
C         60.69105       28.88973       35.22195
O         61.57311       29.65012       35.89754
O         61.01455       28.39651       34.15652
H         60.93602       26.47538       36.71424
H         58.00826       27.18640       36.58384
H         59.22256       29.25436       36.71954
H         58.55511       29.06189       35.06711
N         59.63656       25.15426       34.70852
C         59.42933       24.21590       33.61296
C         60.23090       24.47695       32.34826
O         60.10463       23.66410       31.44240
H         60.23533       24.82603       35.47507
H         58.34409       24.14646       33.37357
H         59.73331       23.20784       33.96799
N         61.05673       25.55356       32.17574
C         61.74428       25.79072       30.90045
C         62.96932       24.89491       30.68013
O         63.57824       24.99615       29.62372
C         62.10918       27.28060       30.71628
C         63.34636       27.72016       31.45828
N         64.40364       28.22082       30.77291
O         63.39877       27.62825       32.67384
H         61.11363       26.25941       32.91938
H         61.00073       25.59500       30.09469
H         61.24070       27.91220       31.00335
H         62.28354       27.44917       29.63068
H         64.37728       28.30992       29.74562
H         65.25322       28.52922       31.26440
N         63.39452       24.00077       31.61864
C         64.55160       23.13758       31.43008
C         65.88830       23.85158       31.53575
O         66.86309       23.33955       31.00599
H         62.86455       23.88435       32.49390
H         64.46383       22.56177       30.48361
H         64.55976       22.38827       32.25226
N         66.04258       24.91038       32.37930
C         67.33771       25.45187       32.79005
C         67.14602       26.23236       34.11476
O         66.55080       27.46206       33.79724
C         67.93582       26.40872       31.72449
C         68.49542       25.76111       30.49663
C         67.90829       25.98229       29.24115
C         69.65732       24.98124       30.59156
C         68.47948       25.42806       28.09331
C         70.23329       24.43794       29.44187
C         69.64672       24.66177       28.18735
O         70.20038       24.15534       27.06805
H         65.20138       25.26232       32.85218
H         68.02141       24.60743       33.02786
H         68.77517       26.98953       32.16794
H         67.15235       27.14311       31.44233
H         67.01485       26.58847       29.14960
H         70.13074       24.81918       31.55262
H         68.02159       25.60693       27.12894
H         71.14090       23.85440       29.52716
H         71.01930       23.64015       27.08937
N         68.43347       26.45191       34.80057
C         68.29645       27.00732       36.16255
C         69.42275       28.00347       36.33303
O         70.57073       27.59218       36.44300
C         68.35893       25.91312       37.29522
C         67.28213       24.81337       37.10262
C         68.25290       26.56568       38.69328
C         67.33698       23.69670       38.15299
H         69.03030       25.59190       34.81682
H         67.33352       27.55684       36.24496
H         69.35160       25.41231       37.24106
H         67.43815       24.32945       36.11638
H         66.26917       25.25774       37.11268
H         69.04732       27.32113       38.84344
H         67.27456       27.05852       38.83140
H         68.39336       25.82343       39.50382
H         67.08617       24.07495       39.16505
H         66.58873       22.91504       37.90379
H         68.34484       23.22966       38.17318
N         69.17465       29.34353       36.31549
C         70.23705       30.32779       36.49390
C         70.68062       30.36803       37.94633
O         70.09063       29.68559       38.76970
C         69.75652       31.71990       36.04361
O         68.67903       32.14847       36.82924
H         68.21124       29.66579       36.13304
H         71.09406       30.05617       35.83764
H         69.43838       31.66633       34.97901
H         70.59916       32.44300       36.12382
H         68.57219       33.11803       36.64757
N         71.69984       31.17167       38.34808
C         72.06103       31.33918       39.75187
C         70.90945       31.96620       40.52591
O         70.61315       31.51157       41.61998
C         73.31074       32.21115       39.88511
H         72.21714       31.70726       37.63249
H         72.32073       30.35190       40.19839
H         74.15762       31.72832       39.35080
H         73.14293       33.22295       39.46121
H         73.59198       32.30614       40.95661
N         70.19007       32.99406       39.98269
C         69.06435       33.64399       40.65281
C         68.00994       32.64129       41.07565
O         67.66722       32.60238       42.25035
C         68.42688       34.68990       39.72527
H         70.44416       33.31535       39.03633
H         69.43912       34.17468       41.55531
H         69.17857       35.45141       39.42965
H         68.02672       34.21526       38.80408
H         67.59018       35.20476       40.24454
N         67.46440       31.78504       40.17097
C         66.44872       30.79494       40.50865
C         66.94959       29.86792       41.60406
O         66.30192       29.76831       42.63591
C         66.06805       30.00634       39.24337
C         64.95205       28.98262       39.48985
C         64.67074       28.27194       38.20901
O         64.24126       28.95517       37.13994
O         64.91436       27.08417       38.09890
H         67.79986       31.83653       39.19732
H         65.53544       31.32297       40.86471
H         66.96872       29.48678       38.84448
H         65.72569       30.72963       38.46903
H         64.03211       29.48691       39.85089
H         65.28316       28.24261       40.25007
N         68.11246       29.17875       41.44720
C         68.67153       28.29523       42.44813
H         69.66221       28.68502       42.76477
H         68.02403       28.20749       43.34484
H         68.80869       27.28527       42.00873
H         68.64517       29.29943       40.58121
Ca        64.91754       28.03354       35.23559
O         64.33887       30.49375       33.70610
H         65.00401       30.14483       33.06130
H         63.87733       31.22077       33.21886

Ca 1.0



