%chk=holoCaM-CaMKII.loop1.water2.frame182.chk
%nprocshared=20
%mem=10GB
%nosave
#b3lyp/svp scf=(tight,noincore,xqc) Test 
#IOP(5/87=12) Density=Current Pop=(MK,readradii) iop(6/33=2) iop(6/42=6)

holoCaM-CaMKII.loop1.water2.frame182 

   0  1 
C          8.25380       57.28992       10.70504
C          8.16974       58.78016       10.59934
O          8.61969       59.46912       11.50109
H          7.23296       56.85727       10.66659
H          8.85337       56.89572        9.85715
H          8.74089       56.99033       11.65716
N          7.62673       59.34910        9.48997
C          7.56301       60.78996        9.28699
C          6.58047       61.42487       10.27503
O          5.37871       61.33674       10.06304
C          7.15377       61.05572        7.82106
C          7.19494       62.48800        7.40944
O          7.63471       63.44058        8.24481
O          6.84506       62.78810        6.28349
H          7.30112       58.72016        8.73859
H          8.58988       61.19632        9.43772
H          6.12675       60.66497        7.65245
H          7.84786       60.50810        7.14543
N          7.02923       62.01987       11.41864
C          6.13374       62.55365       12.45015
C          5.64707       63.97365       12.14432
O          4.79641       64.45682       12.87879
C          6.83398       62.57192       13.83624
C          7.37556       61.20678       14.31325
C          6.31949       60.09946       14.47125
C          5.27133       60.42282       15.54775
N          4.32471       59.31896       15.70160
H          8.03716       61.97119       11.60666
H          5.24739       61.88810       12.52745
H          6.13456       62.96777       14.60218
H          7.69134       63.27591       13.79834
H          7.88645       61.35231       15.29027
H          8.14668       60.85262       13.60248
H          6.85008       59.16907       14.77013
H          5.82321       59.90145       13.49816
H          4.70762       61.33991       15.27445
H          5.78585       60.60027       16.51862
H          3.63776       59.55970       16.45229
H          3.80731       59.16393       14.80593
H          4.82990       58.44457       15.97407
N          6.17627       64.72113       11.13056
C          5.80861       66.11795       10.85779
C          5.26868       66.34431        9.44854
O          4.88836       67.46914        9.15193
C          7.00241       67.07354       11.14013
C          8.30018       66.79676       10.39963
O          9.24951       67.54122       10.57236
O          8.43739       65.69825        9.62740
H          6.90516       64.28762       10.55877
H          4.98882       66.43261       11.54150
H          7.22850       67.02928       12.22781
H          6.67548       68.11414       10.91877
N          5.17691       65.34398        8.53249
C          4.63482       65.53097        7.19767
C          5.43014       66.50350        6.35103
O          4.85012       67.43405        5.81110
H          5.46464       64.39199        8.78787
H          3.57501       65.85772        7.26555
H          4.65198       64.54955        6.67519
N          6.75767       66.29993        6.14091
C          7.56500       67.04340        5.17131
C          8.10271       66.08195        4.09861
O          8.94858       66.47287        3.30661
C          8.69341       67.81518        5.89967
C          9.71153       66.95420        6.58247
O         10.72353       67.52374        7.26472
O          9.64835       65.74238        6.50165
H          7.20666       65.52526        6.65074
H          6.95892       67.81727        4.65339
H          8.23221       68.48317        6.65875
H          9.23462       68.45154        5.16634
N          7.63295       64.80048        4.02185
C          8.10292       63.77114        3.11517
C          9.52901       63.36996        3.39396
O         10.26365       63.17650        2.43980
H          6.86498       64.51047        4.63532
H          7.96731       64.07893        2.05536
H          7.48095       62.86470        3.28267
N          9.96360       63.15424        4.67227
C         11.32635       62.74971        5.03005
C         11.38680       62.18299        6.49124
O         10.41629       62.56157        7.44238
C         12.40897       63.85761        4.77982
C         12.70935       64.20400        3.30984
O         12.13443       65.01863        5.51278
H          9.27287       63.26300        5.42720
H         11.61004       61.87141        4.41052
H         13.38084       63.45789        5.13530
H         11.54190       65.59160        4.96179
H         11.88225       64.76629        2.83644
H         13.59485       64.87105        3.25893
H         12.93497       63.28106        2.73303
N         12.73875       61.95682        7.02101
C         12.86342       61.26722        8.31990
C         14.19117       61.72893        8.90001
O         15.19995       61.62835        8.21458
C         12.84969       59.70095        8.21517
C         11.60768       59.16197        7.45944
C         12.91602       59.09705        9.63948
C         11.61935       57.63973        7.26960
H         13.32128       61.46099        6.30542
H         12.03891       61.57547        8.99858
H         13.75124       59.37786        7.64788
H         11.59501       59.59215        6.43806
H         10.67403       59.45964        7.98492
H         13.81126       59.45210       10.18516
H         12.01305       59.38040       10.22401
H         12.99537       57.99294        9.62044
H         10.74499       57.33514        6.65745
H         12.54527       57.32411        6.74187
H         11.54612       57.10050        8.23510
N         14.27107       62.21698       10.16778
C         15.51900       62.68092       10.76737
C         16.04357       61.63467       11.72099
O         15.41193       60.60937       11.91154
C         15.31075       64.01806       11.54161
C         14.75550       65.14845       10.67742
O         14.50065       63.82585       12.67369
H         13.43243       62.17804       10.75500
H         16.29124       62.83636        9.98309
H         16.29322       64.37613       11.91181
H         13.56727       63.75830       12.35854
H         13.74588       64.87465       10.31973
H         14.66577       66.07284       11.28816
H         15.42444       65.34714        9.81588
N         17.20688       61.85323       12.38522
C         17.67573       60.98292       13.45328
C         16.65505       60.99507       14.58907
O         16.23133       59.93367       15.02566
C         19.07616       61.43582       13.94752
C         20.13165       61.26304       12.84178
O         19.04167       62.77618       14.36823
H         17.74540       62.70158       12.15966
H         17.78864       59.94057       13.07728
H         19.36162       60.78219       14.80366
H         19.89437       62.95449       14.84388
H         21.13247       61.55717       13.22196
H         20.18133       60.20061       12.52125
H         19.90112       61.89049       11.95543
N         16.20289       62.17947       15.09465
C         15.27364       62.30617       16.22199
C         13.85762       61.79062       15.95244
O         13.06904       61.79230       16.88755
C         15.21304       63.77959       16.68052
C         16.57858       64.23532       17.22451
C         16.56915       65.71401       17.62062
C         17.88930       66.15476       18.27938
N         19.04546       66.01153       17.39043
H         16.57651       63.04251       14.67250
H         15.67600       61.70883       17.07072
H         14.47030       63.89367       17.50074
H         14.89242       64.41710       15.82640
H         17.36126       64.08251       16.45726
H         16.82884       63.61513       18.11345
H         15.75065       65.88646       18.35278
H         16.37104       66.33740       16.72104
H         18.05884       65.56360       19.20666
H         17.78870       67.22373       18.56869
H         19.88999       66.39657       17.87150
H         19.23387       65.00590       17.17950
H         18.88972       66.54223       16.50309
N         13.47120       61.28398       14.74831
C         12.18542       60.62458       14.52982
C         12.44715       59.13228       14.55437
O         11.86477       58.45115       15.38729
C         11.52558       61.12156       13.22310
C         11.11108       62.60147       13.35571
C         10.60249       63.19887       12.07130
O         11.28899       63.18094       11.06589
O          9.42221       63.84115       12.04296
H         14.14617       61.26248       13.97677
H         11.47170       60.83231       15.35912
H         10.61836       60.52058       12.99951
H         12.24258       60.98522       12.38562
H         11.98032       63.19619       13.68372
H         10.33212       62.70216       14.14205
N         13.38336       58.57029       13.74022
C         13.80318       57.18720       13.83895
H         14.88462       57.15965       14.09768
H         13.25375       56.63065       14.62693
H         13.65453       56.67936       12.86557
H         13.86910       59.15580       13.05208
Ca        10.17957       64.50124        8.70403
O         12.98469       65.09950        8.03154
H         13.58152       64.36164        7.75258
H         13.56228       65.90238        8.01355
O         11.62980       66.22920       11.11611
H         11.61915       66.62666       10.20895
H         12.14700       66.87226       11.66197

Ca 1.0



