%chk=holoCaM-CaMKII.loop2.water2.frame92.chk
%nprocshared=20
%mem=10GB
%nosave
#b3lyp/svp scf=(tight,noincore,xqc) Test 
#IOP(5/87=12) Density=Current Pop=(MK,readradii) iop(6/33=2) iop(6/42=6)

holoCaM-CaMKII.loop2.water2.frame92 

   -2  1 
C         13.00301       64.79047       68.47706
C         11.91664       65.22808       69.41537
O         11.01988       65.94960       69.00676
H         13.98808       65.13272       68.85767
H         13.00779       63.68123       68.41056
H         12.84329       65.20593       67.45973
N         11.93402       64.80277       70.70603
C         10.89310       65.12201       71.67618
C         10.81161       66.61771       71.94317
O         11.80216       67.20058       72.36224
C         11.17651       64.36576       72.98909
C         10.11040       64.59847       74.01363
O         10.43550       65.12169       75.21081
O          8.94982       64.31266       73.76764
H         12.71164       64.18811       70.99595
H          9.92082       64.75305       71.27898
H         12.16009       64.67965       73.40259
H         11.22414       63.27671       72.78060
N          9.63707       67.28950       71.75237
C          9.46361       68.71309       72.02683
C          8.40811       68.99211       73.10469
O          8.24218       70.15552       73.44451
C          9.07559       69.41610       70.71979
H          8.82596       66.76820       71.39041
H         10.41861       69.15439       72.38492
H          8.11149       69.01572       70.33549
H          8.97080       70.51112       70.87305
H          9.85792       69.24555       69.94916
N          7.63239       68.00637       73.65475
C          6.54404       68.26487       74.61282
C          6.54802       67.33888       75.83591
O          5.70735       67.53457       76.70312
C          5.18823       68.17241       73.86889
C          4.93468       66.83152       73.23131
O          4.01932       66.69716       72.43586
O          5.77939       65.81143       73.45712
H          7.75363       67.05154       73.30277
H          6.62332       69.30579       74.99591
H          5.22070       68.92852       73.05342
H          4.34106       68.43248       74.53886
N          7.43243       66.30820       75.97840
C          7.45902       65.40981       77.12855
C          6.24467       64.49880       77.28993
O          6.21712       63.77117       78.27223
H          8.15457       66.16971       75.26690
H          7.57780       66.02168       78.04903
H          8.34876       64.74869       77.04684
N          5.20160       64.48176       76.40940
C          3.98104       63.70589       76.62959
C          4.16686       62.18875       76.65434
O          3.26392       61.52492       77.14592
C          2.87929       64.10005       75.61523
C          3.21089       63.82502       74.16508
N          2.30763       64.11941       73.20446
O          4.28861       63.34892       73.84578
H          5.23054       65.10595       75.60292
H          3.60595       63.99978       77.63554
H          2.68005       65.18935       75.71502
H          1.94380       63.55718       75.87022
H          1.39375       64.52801       73.44605
H          2.52372       63.93767       72.21558
N          5.26237       61.56066       76.13272
C          5.47065       60.11742       76.23143
C          5.39893       59.37303       74.90864
O          5.60262       58.16828       74.93015
H          5.98372       62.12011       75.65832
H          4.70959       59.64624       76.89090
H          6.46111       59.94238       76.70181
N          5.06063       59.98743       73.73805
C          4.87406       59.27309       72.47252
C          5.74582       59.86704       71.37620
O          6.44843       60.83722       71.61785
C          3.37796       59.35677       72.04868
C          2.43847       58.69089       73.06318
O          2.99026       60.68681       71.79525
H          4.87037       60.99445       73.74504
H          5.14156       58.19884       72.57662
H          3.22995       58.79083       71.10596
H          2.84240       61.14048       72.66463
H          2.71356       57.62255       73.19196
H          2.48889       59.19915       74.04864
H          1.39312       58.74275       72.69011
N          5.67107       59.36258       70.10821
C          6.27120       60.01009       68.95073
C          5.11935       60.64373       68.19518
O          4.19109       59.93268       67.83428
C          7.03317       59.00102       68.03737
C          8.06182       58.16149       68.83482
C          7.71682       59.77016       66.88304
C          8.74404       57.08068       67.98590
H          5.05573       58.55645       69.92736
H          6.98567       60.79884       69.27098
H          6.29143       58.29138       67.60653
H          7.52976       57.63119       69.65342
H          8.83427       58.81880       69.28866
H          6.97875       60.36214       66.30516
H          8.48699       60.46545       67.28320
H          8.19727       59.08401       66.15850
H          9.40550       56.46290       68.62821
H          7.98374       56.41541       67.52214
H          9.37576       57.52219       67.18908
N          5.10976       61.97716       67.92017
C          4.00640       62.62553       67.22035
C          4.36127       62.78194       65.76386
O          5.47639       62.46119       65.38678
C          3.67686       63.98141       67.86987
C          3.25972       63.82858       69.30496
O          2.14952       64.19069       69.65920
O          4.11091       63.30940       70.21095
H          5.93648       62.54048       68.15551
H          3.10115       61.97957       67.24974
H          2.85108       64.46748       67.30682
H          4.56619       64.64802       67.82330
N          3.42691       63.18728       64.85838
C          3.72301       63.20960       63.43458
C          4.77788       64.25917       63.09823
O          5.75736       63.88185       62.46954
C          2.45152       63.36247       62.56949
C          2.76090       63.02670       61.12902
C          2.69459       64.00640       60.12600
C          3.12953       61.71220       60.78179
C          3.00530       63.67685       58.80172
C          3.43419       61.38758       59.45959
C          3.37521       62.36967       58.46966
H          2.47035       63.39692       65.18138
H          4.12519       62.20228       63.18754
H          2.02857       64.37745       62.65352
H          1.66681       62.65430       62.91447
H          2.41638       65.02400       60.36923
H          3.17898       60.93495       61.53480
H          2.96227       64.43548       58.03193
H          3.71731       60.37398       59.20537
H          3.61596       62.11599       57.44582
N          4.69239       65.57524       63.49113
C          5.72224       66.57836       63.22972
C          7.12261       66.09255       63.54954
O          8.02252       66.26195       62.74026
C          5.35089       67.72988       64.17808
C          3.84711       67.64572       64.18815
C          3.62759       66.14182       64.30408
H          5.64668       66.90746       62.16901
H          5.67618       67.49674       65.21869
H          5.77561       68.71627       63.89429
H          3.33838       68.24717       64.97168
H          3.48735       67.98029       63.18803
H          3.75420       65.78981       65.35052
H          2.60571       65.92945       63.94968
N          7.35282       65.44500       64.72342
C          8.65688       64.94473       65.14543
C          9.19259       63.94408       64.14387
O         10.28048       64.14842       63.62421
C          8.54875       64.26991       66.52857
C          8.07655       65.25220       67.60609
C          7.84161       64.59384       68.92366
O          7.33192       65.34683       69.89882
O          8.04863       63.40595       69.11142
H          6.53826       65.28697       65.33319
H          9.36781       65.79762       65.23228
H          9.54024       63.86464       66.82965
H          7.82595       63.42673       66.47107
H          7.10442       65.70494       67.33107
H          8.80812       66.07764       67.72344
N          8.46688       62.83777       63.82424
C          8.90012       61.82630       62.88678
H          9.90781       62.03726       62.47404
H          8.92541       60.84317       63.40203
H          8.17398       61.77325       62.04873
H          7.54860       62.70237       64.25933
Ca         6.45914       64.55702       71.77634
O          8.16559       61.56158       74.25116
H          8.13269       60.64985       74.63354
H          8.29261       62.15191       75.03584
O          9.31671       61.86424       71.43403
H          8.99595       61.42883       70.60583
H         10.14016       61.36729       71.66703

Ca 1.0



