%chk=holoCaM.loop1.water2.frame367.chk
%nprocshared=20
%mem=10GB
%nosave
#b3lyp/svp scf=(tight,noincore,xqc) Test 
#IOP(5/87=12) Density=Current Pop=(MK,readradii) iop(6/33=2) iop(6/42=6)

holoCaM.loop1.water2.frame367 

   0  1 
C          3.79788       -6.06578       85.94106
C          2.89692       -6.11184       87.13949
O          3.21155       -5.48505       88.14050
H          4.79826       -6.46081       86.21719
H          3.39715       -6.68150       85.10829
H          3.90186       -5.01797       85.59140
N          1.73716       -6.82096       87.10699
C          0.85207       -6.91689       88.25828
C          1.47351       -7.83325       89.30517
O          1.73053       -8.98855       88.99351
C         -0.51217       -7.45880       87.81266
C         -1.53581       -7.40708       88.90409
O         -2.65395       -7.81236       88.67501
O         -1.26137       -6.88858       90.11509
H          1.46517       -7.28281       86.22459
H          0.67658       -5.89068       88.65410
H         -0.40572       -8.50331       87.44475
H         -0.89498       -6.83294       86.97584
N          1.74435       -7.38545       90.56446
C          2.47026       -8.18017       91.55653
C          1.57557       -8.98115       92.49075
O          2.10210       -9.85963       93.16088
C          3.42446       -7.28155       92.35990
C          4.46399       -6.47636       91.54489
C          5.53922       -7.32595       90.83528
C          5.14101       -7.85087       89.44329
N          6.17140       -8.72916       88.89741
H          1.52530       -6.40608       90.78128
H          3.04891       -8.96915       91.04777
H          3.97015       -7.89854       93.10663
H          2.80353       -6.55044       92.92540
H          4.99731       -5.86935       92.30905
H          3.99195       -5.75785       90.84034
H          5.84961       -8.14924       91.51324
H          6.42511       -6.67687       90.66178
H          5.00945       -6.98597       88.76690
H          4.19985       -8.40944       89.44341
H          7.08072       -8.22034       88.82067
H          6.27929       -9.56756       89.51384
H          5.87497       -9.04936       87.94655
N          0.23543       -8.76737       92.58874
C         -0.65990       -9.61904       93.37206
C         -1.74382      -10.24220       92.47499
O         -2.57141      -10.98383       92.98470
C         -1.16199       -8.84306       94.61244
C         -1.92364       -7.59487       94.30465
O         -2.13332       -6.77526       95.18333
O         -2.49971       -7.45014       93.10588
H         -0.17672       -7.97467       92.08287
H         -0.10079      -10.48064       93.79958
H         -0.25314       -8.54089       95.17906
H         -1.76694       -9.49069       95.28484
N         -1.72348      -10.07437       91.11267
C         -2.54553      -10.82539       90.17167
C         -4.02032      -10.47003       90.07945
O         -4.69768      -11.13235       89.30594
H         -0.98455       -9.50430       90.68321
H         -2.43865      -11.90702       90.40425
H         -2.12874      -10.67028       89.15168
N         -4.60822       -9.47481       90.80200
C         -6.05649       -9.22020       90.74935
C         -6.60736       -8.69399       89.41973
O         -7.82115       -8.57191       89.32895
C         -6.49077       -8.27237       91.88579
C         -5.84315       -6.91611       91.89165
O         -4.91316       -6.55548       90.98865
O         -6.07313       -6.16756       92.82729
H         -4.02603       -8.94439       91.46529
H         -6.56512      -10.18994       90.94801
H         -6.22338       -8.75988       92.84850
H         -7.59370       -8.14176       91.86985
N         -5.81746       -8.33947       88.36822
C         -6.33692       -7.80084       87.11680
C         -5.90427       -6.36683       86.85524
O         -6.28256       -5.84785       85.81353
H         -4.80836       -8.44748       88.44600
H         -7.44826       -7.81079       87.10348
H         -5.98972       -8.44707       86.28286
N         -5.16588       -5.64104       87.74889
C         -4.82912       -4.23009       87.55094
C         -3.44247       -3.88172       88.07524
O         -2.80339       -4.68092       88.74455
C         -5.87135       -3.30843       88.24380
C         -7.22798       -3.27891       87.53282
O         -6.02241       -3.64769       89.59915
H         -4.90079       -6.07447       88.63967
H         -4.80293       -4.00398       86.46163
H         -5.51239       -2.25813       88.19976
H         -6.47468       -4.53084       89.64532
H         -7.71197       -4.27549       87.52803
H         -7.89903       -2.55921       88.04948
H         -7.09144       -2.92974       86.48619
N         -2.92010       -2.66111       87.76592
C         -1.61685       -2.16467       88.18773
C         -1.82815       -0.84180       88.91954
O         -2.49140        0.04089       88.39161
C         -0.69143       -2.02959       86.94460
C         -0.46897       -3.44044       86.32556
C          0.65459       -1.39026       87.33100
C          0.40116       -3.45718       85.06974
H         -3.47338       -2.04154       87.15277
H         -1.11797       -2.88129       88.87635
H         -1.18429       -1.36749       86.19870
H         -1.45025       -3.87763       86.04390
H         -0.00063       -4.10964       87.08040
H          0.50335       -0.39176       87.79032
H          1.20205       -2.04089       88.04109
H          1.28806       -1.22533       86.43778
H         -0.04563       -2.81369       84.28390
H          1.43536       -3.12286       85.28796
H          0.46702       -4.49838       84.68789
N         -1.27471       -0.64478       90.14771
C         -1.48612        0.53629       90.98364
C         -0.18630        1.31069       91.14552
O          0.78637        0.98840       90.48637
C         -2.02869        0.07657       92.36806
C         -3.37060       -0.65390       92.24860
O         -1.07786       -0.70405       93.05549
H         -0.66323       -1.38091       90.52364
H         -2.23071        1.22774       90.53176
H         -2.24033        0.95954       93.00305
H         -1.14560       -1.64037       92.73806
H         -3.26355       -1.57329       91.63591
H         -3.72945       -0.93432       93.26130
H         -4.12579        0.00904       91.77674
N         -0.08898        2.33658       92.03621
C          1.16902        3.00992       92.36054
C          2.20265        1.99706       92.85403
O          3.32874        2.00885       92.37777
C          0.94542        4.10116       93.44517
C          0.05811        5.24494       92.94336
O          0.35905        3.55056       94.59988
H         -0.93344        2.60923       92.55655
H          1.57502        3.51862       91.45692
H          1.93154        4.56473       93.69142
H          1.07748        3.43061       95.27416
H         -0.95623        4.88732       92.67092
H         -0.05023        6.00982       93.74189
H          0.51882        5.72755       92.05583
N          1.86087        1.07289       93.79700
C          2.77385        0.08878       94.38988
C          3.39762       -0.88582       93.39027
O          4.28291       -1.62913       93.78955
C          1.95773       -0.71257       95.44407
C          2.67847       -1.81330       96.24425
C          3.88118       -1.33793       97.06966
C          3.51330       -0.23083       98.06780
N          4.64464        0.08279       98.93700
H          0.88586        1.09247       94.13324
H          3.59590        0.65110       94.88366
H          1.10927       -1.20595       94.91885
H          1.51147        0.00741       96.16206
H          3.00330       -2.63185       95.56896
H          1.93232       -2.26250       96.93548
H          4.69237       -0.98015       96.40052
H          4.26200       -2.22028       97.62921
H          2.65486       -0.56005       98.69421
H          3.21751        0.68724       97.51469
H          4.88905       -0.75416       99.51493
H          5.47112        0.37330       98.36597
H          4.37638        0.86679       99.57438
N          2.96291       -0.99241       92.10572
C          3.39531       -2.05206       91.20288
C          4.07127       -1.44567       89.98652
O          5.22972       -1.75330       89.74290
C          2.16772       -2.92863       90.85660
C          1.48260       -3.43085       92.14972
C          0.25243       -4.25430       91.90906
O         -0.67661       -3.80987       91.25680
O          0.13032       -5.45838       92.49473
H          2.21828       -0.37443       91.77647
H          4.13378       -2.72215       91.69798
H          2.48141       -3.78651       90.22435
H          1.43433       -2.32305       90.29048
H          1.15493       -2.55863       92.75038
H          2.20630       -4.01718       92.75622
N          3.42230       -0.53852       89.20483
C          4.02868        0.14551       88.08040
H          5.07668       -0.17257       87.90275
H          3.43643       -0.04894       87.16317
H          4.02580        1.23934       88.27787
H          2.45339       -0.29326       89.42726
Ca        -3.26328       -5.59634       92.12602
O         -2.26369       -3.68295       94.32474
H         -2.87371       -4.41708       94.58388
H         -2.72152       -2.86653       94.64488
O         -5.06394       -3.38835       92.41067
H         -5.52298       -2.67050       91.90861
H         -5.05495       -3.07022       93.34727

Ca 1.0



