%chk=holoCaM.loop4.water3.frame485.chk
%nprocshared=20
%mem=10GB
%nosave
#b3lyp/svp scf=(tight,noincore,xqc) Test 
#IOP(5/87=12) Density=Current Pop=(MK,readradii) iop(6/33=2) iop(6/42=6)

holoCaM.loop4.water3.frame485 

   -3  1 
C        108.77451       62.85334       63.03258
C        108.82396       61.36524       63.19663
O        108.28248       60.66311       62.35672
H        108.26941       63.31289       63.90567
H        109.80869       63.24972       62.94966
H        108.21974       63.12614       62.10815
N        109.50748       60.80936       64.23760
C        109.67076       59.36997       64.39544
C        109.34698       58.93931       65.82546
O        109.93041       59.48501       66.75205
C        111.12111       59.00904       64.03022
C        111.31178       57.53504       63.82065
O        112.42108       57.09957       63.56024
O        110.25687       56.69930       63.83205
H        110.00432       61.43574       64.88996
H        109.01028       58.83805       63.67575
H        111.81192       59.38998       64.81309
H        111.38768       59.49281       63.06492
N        108.44086       57.94823       66.07279
C        108.04574       57.50035       67.41051
C        108.47037       56.04854       67.68673
O        108.36578       55.64549       68.83779
C        106.50121       57.74394       67.56171
C        106.23628       59.27551       67.59831
C        105.87283       57.05329       68.79046
C        104.75727       59.66590       67.54799
H        107.98953       57.49573       65.27080
H        108.57769       58.09472       68.18733
H        106.00019       57.30586       66.66905
H        106.71690       59.75702       66.72108
H        106.69226       59.70677       68.51759
H        106.33207       57.41441       69.73384
H        104.77836       57.21908       68.82893
H        105.97943       55.95160       68.71700
H        104.29187       59.27709       66.61822
H        104.19771       59.29451       68.42908
H        104.67317       60.77342       67.55059
N        108.98326       55.20933       66.73452
C        109.31266       53.80928       67.03811
C        110.43336       53.20262       66.17521
O        110.72570       52.02977       66.36439
C        108.01952       52.95501       67.03839
C        107.30683       52.87961       65.72035
O        107.74742       53.44336       64.73752
O        106.16079       52.18033       65.62392
H        109.01591       55.53023       65.76096
H        109.71228       53.75152       68.07517
H        107.30924       53.38137       67.77922
H        108.26032       51.91965       67.36014
N        111.15124       53.93045       65.26829
C        112.28958       53.41092       64.51477
C        111.97334       52.35465       63.46465
O        112.90948       51.87716       62.84046
H        110.96166       54.92765       65.16671
H        113.02976       53.00060       65.23408
H        112.77416       54.25683       63.97943
N        110.70447       51.93973       63.20185
C        110.37344       50.88750       62.23221
C        110.80225       51.16085       60.79041
O        110.85880       50.20484       60.02787
C        108.85523       50.59177       62.26637
C        108.00114       51.82420       62.05685
O        108.57879       53.03445       61.87131
O        106.79090       51.73373       62.16201
H        109.94254       52.35664       63.74938
H        110.91493       49.96912       62.55099
H        108.61003       50.19846       63.27725
H        108.59297       49.80756       61.52333
N        111.04788       52.41391       60.31747
C        111.44755       52.68950       58.94270
C        110.33328       53.28689       58.09989
O        110.60406       53.64772       56.96573
H        110.91343       53.21423       60.94444
H        111.77616       51.76520       58.41937
H        112.31994       53.37681       58.96941
N        109.04766       53.35775       58.55520
C        107.91747       53.83462       57.75815
C        107.24905       55.00385       58.46841
O        107.70637       55.38039       59.53577
C        106.93548       52.66024       57.54929
C        107.62638       51.47987       56.83388
C        106.73219       50.28479       56.61795
N        107.23416       49.17595       56.02585
O        105.56392       50.30168       56.97780
H        108.82923       53.00572       59.49135
H        108.25402       54.19160       56.76088
H        106.07086       52.99374       56.93584
H        106.55665       52.31711       58.53797
H        108.48914       51.13393       57.44224
H        108.00332       51.82189       55.84558
H        108.21911       49.14342       55.72243
H        106.64235       48.34579       55.87482
N        106.16287       55.63953       57.92467
C        105.52403       56.78568       58.57006
C        104.10242       56.43053       58.97321
O        103.25391       56.23125       58.11697
C        105.58908       58.03912       57.65404
C        104.86089       59.24330       58.27355
C        107.05163       58.43198       57.38941
H        105.78184       55.31096       57.02650
H        106.06880       57.04370       59.49212
H        105.09916       57.80583       56.68320
H        103.78622       59.01720       58.42692
H        105.31974       59.51950       59.24437
H        104.91822       60.12110       57.59566
H        107.09863       59.31758       56.72084
H        107.56228       58.68633       58.34375
H        107.60393       57.60301       56.90088
N        103.79281       56.32332       60.29864
C        102.45836       56.01614       60.80561
C        101.55322       57.23214       60.69194
O        102.00826       58.29734       60.31295
C        102.60077       55.58429       62.29101
C        101.38512       55.01262       62.97431
N        100.76364       53.91853       62.48034
O        100.98854       55.50845       64.01697
H        104.55833       56.42151       60.98039
H        102.05135       55.15880       60.22738
H        103.00541       56.43381       62.88628
H        103.32985       54.76854       62.30844
H        101.09670       53.46519       61.61840
H         99.95345       53.51514       62.97196
N        100.24539       57.13716       61.03275
C         99.33786       58.27804       61.15708
C         99.77774       59.21273       62.29485
O         99.80339       60.41641       62.07811
C         97.86037       57.79332       61.22626
C         97.61311       56.59389       62.11871
C         97.35954       55.33968       61.52460
C         97.66488       56.68574       63.51456
C         97.19191       54.20036       62.31046
C         97.49340       55.54076       64.30306
C         97.26489       54.29316       63.70121
O         97.12081       53.17821       64.44487
H         99.89570       56.19570       61.24182
H         99.36908       58.88502       60.22250
H         97.62690       57.46916       60.18665
H         97.16060       58.62707       61.44777
H         97.31900       55.23386       60.44678
H         97.84209       57.63956       63.98895
H         97.01977       53.24235       61.83456
H         97.54679       55.62151       65.38049
H         97.18454       53.19064       65.40991
N        100.22781       58.73175       63.49401
C        100.74876       59.57080       64.58733
C        102.02011       60.34525       64.23372
O        102.47124       61.11121       65.07552
C        101.10300       58.69884       65.82408
C         99.89403       58.06548       66.52015
C         99.00966       59.11438       67.13480
O         97.84171       59.21225       66.79639
O         99.50435       59.94865       68.07094
H        100.20692       57.71689       63.62894
H         99.97264       60.31591       64.86802
H        101.62681       59.30868       66.59426
H        101.81093       57.90168       65.50452
H        100.26022       57.40852       67.33791
H         99.32752       57.43565       65.80839
N        102.66296       60.20399       63.04386
C        103.90569       60.88495       62.71191
C        103.64832       61.88359       61.60188
O        103.89204       63.06585       61.79955
C        104.95004       59.85256       62.26283
C        105.31291       58.81564       63.33944
C        106.24137       57.76824       62.78151
O        106.57715       56.69936       63.51607
O        106.67369       57.85601       61.64702
H        102.27825       59.57483       62.33616
H        104.31411       61.44059       63.58621
H        105.86757       60.38261       61.93864
H        104.53926       59.29712       61.39390
H        104.38894       58.30131       63.67644
H        105.78619       59.30711       64.21726
N        103.14674       61.48019       60.40307
C        102.87337       62.39725       59.32201
H        102.12274       63.14827       59.64593
H        103.80923       62.90597       59.01034
H        102.46455       61.83799       58.45280
H        102.94441       60.48809       60.24577
Ca       107.80000       55.04372       62.57348
O        105.39196       53.94167       63.10547
H        105.30303       53.74335       62.13772
H        104.74732       53.34023       63.55233
O        110.80495       55.67613       61.15501
H        111.53936       55.32871       61.72035
H        111.15380       55.62124       60.23035
O        109.14104       57.78585       60.42020
H        109.17126       58.50408       61.09934
H        109.86226       58.01397       59.78334

Ca 1.0



