%chk=holoCaM.loop1.water2.frame160.chk
%nprocshared=20
%mem=10GB
%nosave
#b3lyp/svp scf=(tight,noincore,xqc) Test 
#IOP(5/87=12) Density=Current Pop=(MK,readradii) iop(6/33=2) iop(6/42=6)

holoCaM.loop1.water2.frame160 

   0  1 
C         94.07225       69.90881       79.93625
C         95.06821       69.14345       80.74584
O         95.65998       68.20683       80.22630
H         93.07880       69.86300       80.42595
H         94.40221       70.96592       79.85673
H         93.99484       69.48227       78.91286
N         95.33130       69.50730       82.03304
C         96.35345       68.83640       82.81695
C         95.98389       67.37394       83.05201
O         95.02248       67.07521       83.74550
C         96.63468       69.58939       84.12166
C         97.80923       68.98196       84.81325
O         98.97258       68.83111       84.14964
O         97.71169       68.61162       85.96778
H         94.83505       70.31937       82.43214
H         97.29140       68.90129       82.21770
H         95.74073       69.59758       84.78374
H         96.89667       70.64105       83.87940
N         96.70250       66.41990       82.40869
C         96.41516       64.99233       82.38631
C         96.67022       64.28669       83.71516
O         95.81291       63.51516       84.12206
C         97.24195       64.37018       81.23946
C         96.92596       62.89667       80.96426
C         97.63790       62.44720       79.68079
C         97.40292       60.96134       79.39530
N         98.06286       60.56301       78.15184
H         97.44671       66.75610       81.78592
H         95.35015       64.84832       82.09454
H         98.33101       64.49144       81.43240
H         96.98781       64.94258       80.31719
H         95.82978       62.76624       80.82543
H         97.25770       62.28154       81.82789
H         98.73067       62.62764       79.77739
H         97.25388       63.04754       78.82485
H         96.31168       60.76006       79.31179
H         97.81069       60.36086       80.23824
H         99.08869       60.76045       78.20681
H         97.92295       59.53799       78.00222
H         97.64839       61.08275       77.34392
N         97.82114       64.46913       84.43148
C         98.15318       63.67821       85.62670
C         97.92872       64.41205       86.95106
O         98.17099       63.81477       87.99118
C         99.55781       63.03848       85.48841
C        100.71786       63.98924       85.38874
O        100.55333       65.19389       85.42844
O        101.96358       63.49735       85.24802
H         98.48504       65.18646       84.10658
H         97.45917       62.81268       85.69969
H         99.56197       62.40715       84.57397
H         99.74052       62.37376       86.36051
N         97.33981       65.63919       87.00222
C         96.84917       66.24120       88.23668
C         97.91497       66.65247       89.22711
O         97.85653       66.23165       90.37375
H         97.10356       66.11991       86.12355
H         96.12959       65.54323       88.72041
H         96.28392       67.16183       87.97577
N         98.87447       67.54337       88.86463
C         99.82909       68.15943       89.78303
C         99.67453       69.69285       89.76526
O        100.47455       70.36792       90.39729
C        101.25593       67.67805       89.42681
C        101.61692       68.04544       88.02771
O        101.71950       69.21505       87.71601
O        101.66601       67.10911       87.07085
H         98.91490       67.83292       87.87962
H         99.65021       67.82682       90.82925
H        101.26773       66.56996       89.52165
H        102.01070       68.09052       90.12994
N         98.63402       70.30628       89.11352
C         98.37748       71.74175       89.14762
C         99.16566       72.56899       88.14450
O         98.92513       73.76760       88.09679
H         97.90376       69.73354       88.66848
H         98.50593       72.12721       90.18240
H         97.30973       71.89940       88.87769
N        100.09496       72.02991       87.30496
C        100.81263       72.79738       86.28241
C        100.68106       72.16249       84.90796
O        100.19545       71.05005       84.78897
C        102.30548       72.97216       86.66446
C        102.48157       74.12248       87.65262
O        102.82617       71.79978       87.23411
H        100.29914       71.02962       87.38173
H        100.35779       73.80609       86.16684
H        102.91231       73.26764       85.77735
H        103.02465       71.18014       86.48966
H        103.55532       74.23063       87.91507
H        102.15151       75.07063       87.17265
H        101.89095       73.95748       88.57647
N        101.04632       72.87969       83.80584
C        100.89666       72.43209       82.42344
C        102.25045       72.53090       81.72390
O        102.83350       73.60592       81.68093
C         99.77746       73.28135       81.73685
C         98.41157       72.91551       82.38982
C         99.72249       73.05269       80.21509
C         97.20327       73.68159       81.85109
H        101.39829       73.83956       83.95051
H        100.56328       71.37144       82.38108
H         99.99912       74.36028       81.89512
H         98.46033       73.11162       83.48149
H         98.21677       71.82962       82.24252
H         99.45052       72.00746       79.98479
H         98.97757       73.72265       79.74044
H        100.69343       73.29999       79.74167
H         96.29502       73.35828       82.40417
H         97.34086       74.77285       81.99406
H         97.02589       73.46001       80.77916
N        102.79865       71.42488       81.14303
C        104.07556       71.40110       80.43096
C        103.86628       71.78048       78.97871
O        102.74105       72.04319       78.59944
C        104.71785       69.98660       80.51890
C        104.94891       69.54426       81.97046
O        103.95881       69.03260       79.81159
H        102.25042       70.56180       81.15526
H        104.77573       72.12794       80.89871
H        105.71984       70.01677       80.04198
H        103.24916       68.67833       80.40509
H        105.43224       68.54454       81.98679
H        105.60405       70.27024       82.49505
H        103.98270       69.47251       82.51119
N        104.90134       71.83329       78.09570
C        104.69262       72.13073       76.67769
C        103.90826       71.02212       75.97280
O        103.26164       71.30994       74.97523
C        106.03145       72.40564       75.95505
C        106.68714       73.68154       76.51595
O        106.88396       71.29654       76.10166
H        105.85656       71.66449       78.44426
H        104.08681       73.06283       76.60493
H        105.82549       72.57460       74.87351
H        107.75980       71.53706       75.70087
H        106.00444       74.54866       76.38371
H        106.92272       73.57596       77.59517
H        107.62837       73.90258       75.97066
N        103.94492       69.72914       76.40941
C        103.18618       68.64553       75.78249
C        101.69862       68.84863       76.02654
O        100.91724       68.87688       75.08685
C        103.64582       67.28489       76.36545
C        103.03515       66.07514       75.63456
C        103.60814       64.76078       76.18842
C        103.08934       63.54252       75.41066
N        103.67024       62.30399       75.93151
H        104.55210       69.50017       77.21035
H        103.41366       68.62329       74.69295
H        103.41635       67.22513       77.45232
H        104.74977       67.22398       76.24585
H        103.28824       66.14822       74.55405
H        101.92846       66.07443       75.74274
H        103.33486       64.66041       77.26185
H        104.71686       64.78378       76.10387
H        103.36331       63.64618       74.33677
H        101.98080       63.49084       75.48710
H        103.30939       61.49431       75.37680
H        104.71270       62.33062       75.84593
H        103.40315       62.17356       76.93421
N        101.26057       68.99904       77.30531
C         99.86915       69.16707       77.71955
C         99.25473       70.39520       77.05838
O         98.18363       70.28427       76.47840
C         99.80593       69.23771       79.27215
C        100.27724       67.90344       79.90619
C        100.35322       67.92597       81.40827
O        101.05327       68.73753       81.98496
O         99.73676       66.97577       82.12840
H        101.98586       69.00982       78.03529
H         99.26949       68.28064       77.41468
H         98.76505       69.44473       79.60611
H        100.46253       70.06282       79.61753
H        101.29285       67.64593       79.55425
H         99.59601       67.08584       79.58683
N         99.90727       71.58634       77.05481
C         99.39791       72.77193       76.40044
H         98.45278       73.09719       76.88135
H        100.14142       73.59538       76.48361
H         99.22440       72.57012       75.32174
H        100.82144       71.64371       77.49958
Ca       100.74101       67.94750       85.20910
O        103.33448       66.39463       83.71792
H        104.21099       66.15673       83.32364
H        103.31477       65.91578       84.58433
O        103.67516       69.14123       85.09391
H        103.69053       68.75832       86.00537
H        104.62851       69.30336       84.88511

Ca 1.0



