%chk=holoCaM.loop1.water2.frame154.chk
%nprocshared=20
%mem=10GB
%nosave
#b3lyp/svp scf=(tight,noincore,xqc) Test 
#IOP(5/87=12) Density=Current Pop=(MK,readradii) iop(6/33=2) iop(6/42=6)

holoCaM.loop1.water2.frame154 

   0  1 
C        -11.29838       56.51160       -8.16916
C        -10.80507       55.40943       -9.05283
O        -11.61359       54.67495       -9.60378
H        -12.40796       56.50844       -8.12040
H        -10.88814       56.38175       -7.14678
H        -10.96209       57.48737       -8.57963
N         -9.46859       55.25168       -9.25584
C         -8.93494       54.24545      -10.15896
C         -9.25567       52.84173       -9.65367
O         -8.78395       52.44164       -8.59901
C         -7.42557       54.46307      -10.35810
C         -6.82291       53.59113      -11.41640
O         -7.47811       52.74271      -12.00041
O         -5.53783       53.78027      -11.74637
H         -8.82098       55.90820       -8.79170
H         -9.40925       54.41796      -11.15294
H         -6.87934       54.31327       -9.40204
H         -7.27138       55.51348      -10.68851
N        -10.10092       52.06163      -10.37686
C        -10.54645       50.72241      -10.00636
C         -9.40710       49.71476      -10.00773
O         -9.23644       49.02869       -9.00983
C        -11.64578       50.23408      -10.98394
C        -12.91460       51.10851      -10.92565
C        -13.96243       50.64107      -11.94388
C        -15.22499       51.51312      -11.87277
N        -16.20745       51.09710      -12.87317
H        -10.48892       52.48009      -11.22740
H        -11.00597       50.75169       -8.99259
H        -11.93662       49.19380      -10.71688
H        -11.24405       50.21906      -12.01927
H        -12.67084       52.16764      -11.14865
H        -13.34145       51.05940       -9.90000
H        -14.23506       49.58247      -11.74287
H        -13.53070       50.70744      -12.96643
H        -14.95719       52.57867      -12.04952
H        -15.67411       51.43014      -10.85796
H        -15.81107       51.21333      -13.83431
H        -16.47782       50.09852      -12.72093
H        -17.06026       51.69586      -12.78526
N         -8.60888       49.54688      -11.10333
C         -7.62367       48.46634      -11.21946
C         -6.19484       48.88738      -10.89843
O         -5.32003       48.03282      -10.94143
C         -7.72835       47.79340      -12.60961
C         -7.36708       48.67858      -13.77824
O         -6.98929       49.95833      -13.60053
O         -7.41183       48.22341      -14.90964
H         -8.74399       50.18597      -11.89969
H         -7.86255       47.67626      -10.47388
H         -8.76860       47.42914      -12.75259
H         -7.05266       46.91056      -12.63264
N         -5.87773       50.15568      -10.52219
C         -4.53325       50.55421      -10.13437
C         -3.54133       50.43620      -11.27044
O         -2.51493       49.79053      -11.11868
H         -6.61774       50.86794      -10.46334
H         -4.20012       49.95770       -9.25784
H         -4.56107       51.62282       -9.82653
N         -3.78976       51.08934      -12.43259
C         -2.86996       51.18913      -13.56598
C         -2.50460       52.66233      -13.82166
O         -1.89519       52.95423      -14.84103
C         -3.47351       50.48942      -14.81968
C         -4.77274       51.07581      -15.29549
O         -5.35541       50.61210      -16.26173
O         -5.28032       52.11703      -14.62840
H         -4.68662       51.58405      -12.48703
H         -1.91961       50.65141      -13.35548
H         -3.64324       49.41827      -14.57660
H         -2.73716       50.53952      -15.65147
N         -2.77739       53.63125      -12.89248
C         -2.37604       55.02535      -13.00848
C         -3.21199       55.89445      -13.93629
O         -2.88624       57.07040      -14.01934
H         -3.17530       53.35714      -11.98557
H         -1.30240       55.07296      -13.29404
H         -2.46579       55.49311      -12.00306
N         -4.27911       55.43626      -14.65985
C         -5.03492       56.29657      -15.58226
C         -6.54760       55.94393      -15.59870
O         -7.04564       55.65342      -14.33576
C         -4.46139       56.15363      -17.01163
C         -3.05369       56.74247      -17.13189
O         -4.42931       54.79570      -17.36720
H         -4.52361       54.44122      -14.60810
H         -4.96644       57.35651      -15.25050
H         -5.11985       56.71834      -17.71013
H         -4.33968       54.75096      -18.35385
H         -3.06820       57.81798      -16.85472
H         -2.33207       56.20161      -16.48645
H         -2.70498       56.65586      -18.18202
N         -7.38767       56.92295      -16.33185
C         -8.83459       56.94931      -15.99581
C         -9.63121       56.82966      -17.29756
O         -9.71815       57.79072      -18.04876
C         -9.20695       58.25526      -15.19534
C         -8.44992       58.40750      -13.84323
C        -10.72000       58.42961      -14.97287
C         -8.91057       57.47749      -12.70853
H         -6.96718       57.87895      -16.39081
H         -9.10655       56.06723      -15.38177
H         -8.88455       59.11053      -15.83033
H         -8.59410       59.44706      -13.47443
H         -7.36048       58.27905      -14.01091
H        -10.92075       59.39255      -14.45534
H        -11.26656       58.45378      -15.93566
H        -11.13112       57.61033      -14.35592
H         -8.84295       56.40858      -12.97770
H         -8.27900       57.65775      -11.81241
H         -9.95846       57.69262      -12.41679
N        -10.22239       55.64224      -17.62812
C        -11.08558       55.42065      -18.79243
C        -12.42273       56.12443      -18.61269
O        -12.61688       56.79498      -17.61458
C        -11.34227       53.89517      -19.00412
C        -10.06527       53.14662      -19.40617
O        -11.96500       53.32094      -17.87728
H        -10.03116       54.84297      -17.02045
H        -10.58874       55.80646      -19.70982
H        -12.02169       53.73576      -19.86409
H        -11.27095       52.92233      -17.29100
H        -10.29316       52.07359      -19.57992
H         -9.65076       53.57617      -20.34351
H         -9.30928       53.22412      -18.60930
N        -13.40891       55.99087      -19.54205
C        -14.74834       56.55713      -19.39848
C        -15.47813       55.98218      -18.18367
O        -15.93966       56.76327      -17.36348
C        -15.58458       56.33496      -20.68510
C        -14.97231       57.07973      -21.88156
O        -15.68430       54.96422      -20.97640
H        -13.19990       55.45066      -20.39299
H        -14.66540       57.65990      -19.26133
H        -16.60113       56.75574      -20.50216
H        -16.41265       54.86218      -21.64294
H        -15.61233       56.94430      -22.77810
H        -14.90472       58.16644      -21.66168
H        -13.95714       56.70253      -22.12282
N        -15.62760       54.63276      -18.00167
C        -16.37656       54.05031      -16.87743
C        -15.75636       54.33263      -15.50628
O        -16.36003       53.95047      -14.51267
C        -16.55322       52.52105      -17.04877
C        -17.37514       52.17020      -18.30393
C        -17.61268       50.65892      -18.48175
C        -18.43103       49.97855      -17.36487
N        -19.76814       50.55811      -17.21877
H        -15.21719       54.00209      -18.70437
H        -17.39536       54.49837      -16.87351
H        -17.10464       52.13834      -16.16397
H        -15.55923       52.02282      -17.08462
H        -16.83899       52.52675      -19.20720
H        -18.35210       52.69667      -18.27204
H        -16.62972       50.14636      -18.56368
H        -18.15206       50.50955      -19.44250
H        -17.89375       50.02559      -16.39394
H        -18.53492       48.90264      -17.62940
H        -20.30901       49.99441      -16.52373
H        -19.70682       51.53837      -16.86272
H        -20.27476       50.53959      -18.13358
N        -14.59396       55.02537      -15.36207
C        -14.00936       55.38723      -14.07886
C        -14.28073       56.86383      -13.82862
O        -14.80600       57.19784      -12.77586
C        -12.50541       55.03154      -14.06940
C        -12.29029       53.52573      -14.30999
C        -10.83985       53.12950      -14.29189
O        -10.03719       53.67754      -15.02080
O        -10.42301       52.11471      -13.52068
H        -14.09891       55.35614      -16.19517
H        -14.48406       54.82548      -13.24314
H        -12.06546       55.32006      -13.08915
H        -11.98683       55.59265      -14.87586
H        -12.70340       53.25930      -15.30351
H        -12.83372       52.94106      -13.54085
N        -14.03478       57.79686      -14.78879
C        -14.38018       59.19299      -14.64105
H        -15.46931       59.29552      -14.44383
H        -13.79947       59.64588      -13.81291
H        -14.14983       59.73717      -15.58368
H        -13.63527       57.50697      -15.68199
Ca        -7.06126       53.43059      -14.65708
O         -8.91526       50.87919      -16.42426
H         -9.22095       50.02456      -16.02935
H         -8.66518       50.64593      -17.35343
O         -7.07272       53.06309      -17.78843
H         -6.68694       52.17206      -17.97338
H         -6.45366       53.47363      -17.14121

Ca 1.0



