%chk=holoCaM.loop4.water3.frame318.chk
%nprocshared=20
%mem=10GB
%nosave
#b3lyp/svp scf=(tight,noincore,xqc) Test 
#IOP(5/87=12) Density=Current Pop=(MK,readradii) iop(6/33=2) iop(6/42=6)

holoCaM.loop4.water3.frame318 

   -3  1 
C        127.21633       37.01420       92.99592
C        127.67920       38.06497       93.95910
O        127.00380       38.26857       94.95705
H        126.20984       37.28095       92.61056
H        127.91443       36.90875       92.14058
H        127.15243       36.03913       93.52471
N        128.81766       38.78383       93.72635
C        129.31258       39.79218       94.65890
C        130.48610       40.56479       94.05409
O        131.45642       39.95548       93.62604
C        129.74859       39.13570       95.99287
C        130.04234       40.14314       97.07000
O        130.47231       39.72633       98.27516
O        129.85064       41.33159       96.88152
H        129.33409       38.61491       92.84945
H        128.47819       40.50038       94.86566
H        130.64371       38.50247       95.81564
H        128.94710       38.48821       96.39940
N        130.45823       41.92711       94.02678
C        131.48762       42.78030       93.43171
C        132.23504       43.59216       94.49510
O        133.38912       43.92499       94.26244
C        130.79351       43.74096       92.40330
C        130.12533       42.92016       91.26712
C        131.76799       44.79191       91.82673
C        129.28431       43.76203       90.30167
H        129.63980       42.39197       94.44092
H        132.24947       42.17035       92.89610
H        129.99888       44.30185       92.94564
H        129.43449       42.17283       91.71161
H        130.90337       42.37279       90.69151
H        132.59781       44.30328       91.27554
H        131.24625       45.49916       91.15243
H        132.18779       45.42927       92.63166
H        128.80439       43.09512       89.55489
H        128.48748       44.30288       90.85555
H        129.90333       44.48954       89.73984
N        131.60276       44.06241       95.60544
C        132.14965       45.10197       96.48685
C        132.27566       44.69454       97.95602
O        132.80501       45.49051       98.72018
C        131.23757       46.35382       96.37008
C        129.78716       45.95231       96.47566
O        129.39999       45.15703       97.48844
O        129.03023       46.14871       95.53819
H        130.64288       43.74493       95.77947
H        133.17630       45.38706       96.16944
H        131.38950       46.81549       95.36946
H        131.50338       47.11240       97.13670
N        131.81498       43.50959       98.44022
C        131.92683       43.11702       99.83765
C        131.24485       44.09358      100.77377
O        131.90331       44.60888      101.66607
H        131.36844       42.84857       97.80142
H        133.00144       43.02616      100.10899
H        131.45700       42.11810       99.97106
N        129.92241       44.38810      100.63123
C        129.18930       45.29061      101.51892
C        128.03468       44.57774      102.22806
O        127.26711       45.24163      102.91134
C        128.75314       46.55831      100.74421
C        127.78916       46.36422       99.61035
O        127.28312       45.15747       99.31750
O        127.46476       47.32544       98.93367
H        129.41183       43.95123       99.85225
H        129.85387       45.67103      102.32485
H        129.67103       47.02854      100.32789
H        128.29466       47.27963      101.45477
N        127.88829       43.21818      102.17091
C        126.85457       42.47588      102.88119
C        125.45125       42.62478      102.31610
O        124.55484       41.99086      102.85151
H        128.58853       42.65625      101.66951
H        126.87036       42.75702      103.95663
H        127.09934       41.39294      102.81464
N        125.18038       43.41864      101.24194
C        123.85761       43.56659      100.63866
C        123.90635       43.21264       99.15568
O        124.96674       42.87348       98.65152
C        123.33483       45.00402      100.86176
C        124.23280       46.10085      100.26067
C        123.64651       47.48476      100.39970
N        124.32768       48.55215       99.92541
O        122.55854       47.65386      100.93164
H        125.94408       43.94683      100.81967
H        123.12873       42.87936      101.12061
H        123.23688       45.18232      101.95526
H        122.31909       45.08606      100.42132
H        124.38987       45.90399       99.17906
H        125.21301       46.09364      100.77928
H        125.24429       48.43185       99.47363
H        123.93844       49.50247      100.00814
N        122.77193       43.27831       98.39499
C        122.73606       42.96200       96.97154
C        122.33161       44.20907       96.19104
O        121.24267       44.72710       96.39021
C        121.76997       41.77034       96.72547
C        121.63517       41.43981       95.23354
C        122.26250       40.51572       97.46569
H        121.88668       43.55900       98.83992
H        123.74070       42.64410       96.61962
H        120.75932       42.03397       97.10911
H        121.21097       42.30265       94.68650
H        122.61980       41.17301       94.79570
H        120.93906       40.58638       95.09301
H        122.32333       40.69779       98.55848
H        121.55992       39.67105       97.30080
H        123.26824       40.21615       97.09727
N        123.19362       44.73698       95.27318
C        122.92241       45.91916       94.44868
C        121.77056       45.63258       93.48593
O        121.34636       44.49208       93.37859
C        124.22861       46.22185       93.64430
C        124.41722       47.50577       92.86893
N        125.54266       47.66130       92.13170
O        123.60971       48.41586       92.91780
H        124.10543       44.27311       95.16704
H        122.68077       46.76634       95.12643
H        124.36895       45.37999       92.94006
H        125.07731       46.22076       94.35036
H        126.25260       46.91418       92.09237
H        125.70793       48.52714       91.59765
N        121.24271       46.61739       92.71294
C        120.30771       46.36921       91.62002
C        121.02703       45.49991       90.58848
O        120.52716       44.45601       90.19539
C        119.90448       47.71810       90.93812
C        118.43677       47.86034       90.59109
C        117.73189       46.88223       89.86789
C        117.76014       49.03055       90.98859
C        116.37587       47.07313       89.56177
C        116.41798       49.22556       90.66669
C        115.71818       48.24638       89.95370
O        114.41942       48.42618       89.63779
H        121.54162       47.57749       92.88961
H        119.39864       45.87771       92.03445
H        120.51469       47.89528       90.02628
H        120.15455       48.57091       91.60262
H        118.22184       45.97157       89.55042
H        118.27658       49.81047       91.53480
H        115.83478       46.31200       89.01406
H        115.92630       50.14166       90.97078
H        113.93933       49.23180       89.88066
N        122.24867       45.91516       90.12957
C        123.04610       45.25558       89.09491
C        123.62038       43.89614       89.50758
O        124.28091       43.27845       88.68340
C        124.21201       46.18263       88.64918
C        123.76302       47.58484       88.17853
C        122.73436       47.52549       87.08559
O        121.51629       48.06756       87.28039
O        122.99212       46.98513       86.02237
H        122.60881       46.79627       90.52099
H        122.39466       45.09633       88.20869
H        124.75462       45.69582       87.80895
H        124.93136       46.31372       89.48806
H        124.64981       48.14694       87.81585
H        123.34546       48.16412       89.02715
N        123.39180       43.34868       90.73367
C        123.85225       42.02498       91.14019
C        122.66739       41.08062       91.13057
O        122.74005       40.06042       90.45948
C        124.50909       42.09205       92.53342
C        125.84962       42.84405       92.49778
C        126.46208       42.99653       93.86260
O        127.51114       43.60512       93.98332
O        125.86642       42.48715       94.95714
H        122.81174       43.85915       91.40626
H        124.60078       41.60862       90.42806
H        124.70688       41.06127       92.90366
H        123.80879       42.58961       93.23998
H        125.70624       43.85358       92.06751
H        126.56342       42.29192       91.84874
N        121.52438       41.37648       91.80914
C        120.33999       40.54285       91.78494
H        119.50186       41.11580       91.33473
H        120.48529       39.61472       91.19387
H        120.06411       40.26056       92.82051
H        121.46891       42.25077       92.34344
Ca       127.79811       43.59149       97.13253
O        126.63536       40.57556       97.18232
H        126.01697       40.14538       97.82405
H        126.26265       40.35253       96.29478
O        125.88104       45.68157       96.69994
H        125.92813       46.66181       96.82081
H        126.49641       45.49969       95.94617
O        127.89539       41.52835       99.51104
H        128.79279       41.82507       99.22064
H        128.03965       40.60837       99.84525

Ca 1.0



