%chk=holoCaM-CaMKII.loop1.water2.frame280.chk
%nprocshared=20
%mem=10GB
%nosave
#b3lyp/svp scf=(tight,noincore,xqc) Test 
#IOP(5/87=12) Density=Current Pop=(MK,readradii) iop(6/33=2) iop(6/42=6)

holoCaM-CaMKII.loop1.water2.frame280 

   0  1 
C         39.13293       36.70587       72.04612
C         40.33349       37.21479       71.30980
O         40.52884       36.80980       70.17514
H         38.22246       36.93825       71.45249
H         39.20967       35.60681       72.17687
H         39.03522       37.18627       73.04122
N         41.19297       38.09749       71.89614
C         42.31929       38.70627       71.20000
C         43.62403       38.11392       71.69704
O         44.49481       38.82521       72.17763
C         42.19385       40.24356       71.34535
C         43.24927       41.05431       70.64219
O         43.35605       41.04063       69.30162
O         43.97918       41.78648       71.29016
H         41.03441       38.36641       72.87913
H         42.28843       38.43892       70.13273
H         42.21579       40.49397       72.42825
H         41.20823       40.56390       70.94101
N         43.82238       36.77081       71.56218
C         45.07106       36.08948       71.89435
C         46.16568       36.34195       70.86076
O         47.27609       35.88148       71.08856
C         44.82161       34.56563       71.99420
C         43.88999       34.18119       73.15991
C         44.58435       34.31926       74.52617
C         43.64883       33.91454       75.67100
N         44.35672       33.93195       76.95132
H         43.04200       36.20572       71.19335
H         45.43949       36.46184       72.87176
H         45.77622       34.00909       72.12164
H         44.36735       34.22955       71.03562
H         43.61324       33.11184       73.03590
H         42.95524       34.78162       73.12493
H         44.92034       35.36082       74.70565
H         45.47555       33.65342       74.53279
H         43.25434       32.89009       75.49187
H         42.79033       34.62196       75.70906
H         43.68944       33.68112       77.71595
H         45.13120       33.22837       76.93796
H         44.74945       34.88283       77.13930
N         45.94886       37.06071       69.71904
C         46.99786       37.35959       68.74492
C         47.39941       38.83938       68.79309
O         48.35227       39.20675       68.12059
C         46.60220       36.82750       67.35032
C         45.24267       37.28141       66.90275
O         44.97202       38.58877       66.76955
O         44.36745       36.45914       66.68033
H         45.01366       37.44931       69.53435
H         47.93669       36.82730       69.01346
H         46.58963       35.71470       67.39835
H         47.36828       37.11825       66.59957
N         46.81023       39.70705       69.66839
C         47.35068       41.00967       70.03034
C         47.36648       42.05428       68.94099
O         48.41732       42.62291       68.68279
H         46.00418       39.39749       70.22387
H         48.37521       40.86973       70.43883
H         46.72561       41.42006       70.85295
N         46.21788       42.40372       68.30701
C         46.09532       43.50985       67.36235
C         44.96965       44.48513       67.74985
O         44.72846       45.41439       66.99149
C         45.93747       42.96069       65.93096
C         44.88351       41.90479       65.78221
O         43.61050       42.14696       66.12152
O         45.18609       40.81040       65.33976
H         45.37987       41.84970       68.50357
H         47.02622       44.11946       67.33926
H         46.90891       42.50857       65.63049
H         45.73468       43.79963       65.23173
N         44.28513       44.39086       68.93101
C         43.27705       45.35756       69.35915
C         41.93039       45.25022       68.65893
O         41.05056       46.02415       69.01095
H         44.54485       43.66609       69.61128
H         43.68636       46.38733       69.26113
H         43.06909       45.18802       70.43824
N         41.67336       44.32209       67.69401
C         40.36780       44.14236       67.05557
C         39.86063       42.71322       67.21847
O         40.58937       41.84303       67.66983
C         40.43478       44.50141       65.54522
C         40.47455       46.01292       65.29398
O         41.51602       43.85937       64.91811
H         42.43057       43.69759       67.40778
H         39.60572       44.79343       67.53806
H         39.50492       44.15927       65.04195
H         42.34397       44.36782       65.12992
H         40.50242       46.20217       64.19855
H         39.55215       46.48115       65.69980
H         41.36170       46.48053       65.76703
N         38.57042       42.42945       66.88164
C         37.93656       41.11213       66.92958
C         37.32889       40.84134       65.56026
O         36.62130       41.70171       65.05085
C         36.83914       41.08913       68.03613
C         37.49918       41.26306       69.43142
C         36.03011       39.77209       67.97951
C         36.49736       41.38419       70.58225
H         37.97585       43.21880       66.58203
H         38.67010       40.31022       67.17732
H         36.13701       41.93330       67.85488
H         38.10672       42.19228       69.43939
H         38.17992       40.40586       69.63489
H         36.68999       38.89542       68.15335
H         35.21203       39.76550       68.72549
H         35.53318       39.65184       66.99483
H         35.82775       42.25407       70.41560
H         35.88866       40.46579       70.70005
H         37.04851       41.53742       71.53401
N         37.51687       39.64822       64.92771
C         36.98552       39.35754       63.59612
C         35.89064       38.30209       63.65494
O         35.59344       37.79221       64.72431
C         38.13590       38.87067       62.67595
C         39.27831       39.89737       62.62315
O         38.58177       37.60870       63.12478
H         38.05300       38.91126       65.40944
H         36.53449       40.27107       63.15023
H         37.75671       38.75097       61.63896
H         39.57081       37.55377       63.08936
H         38.90871       40.88194       62.27132
H         39.72098       40.01272       63.63256
H         40.06963       39.54456       61.92675
N         35.26933       37.90422       62.50896
C         34.32030       36.79202       62.43158
C         34.97214       35.51340       62.93099
O         34.39705       34.83213       63.76743
C         33.83772       36.57762       60.96957
C         32.92488       37.71697       60.50299
O         34.94131       36.45894       60.10521
H         35.53082       38.38433       61.63485
H         33.42479       36.99717       63.06105
H         33.23884       35.63737       60.93925
H         34.59927       36.13753       59.23102
H         33.45042       38.69325       60.52210
H         32.58033       37.51825       59.46549
H         32.02855       37.77170       61.15696
N         36.19939       35.15423       62.46811
C         36.91645       33.94454       62.85776
C         37.03784       33.82456       64.36406
O         36.69536       32.78699       64.91375
C         38.30791       33.97312       62.18187
C         39.16453       32.73329       62.46254
C         40.40781       32.73957       61.56209
C         41.26917       31.49165       61.78353
N         42.35616       31.43200       60.80611
H         36.66338       35.79930       61.80992
H         36.36680       33.05526       62.47790
H         38.87561       34.87964       62.49211
H         38.13132       34.03738       61.08526
H         38.57013       31.82352       62.23167
H         39.46006       32.71044       63.53497
H         41.01931       33.65095       61.74723
H         40.06749       32.75118       60.50321
H         40.64015       30.58099       61.67136
H         41.68756       31.50709       62.81459
H         41.95952       31.36862       59.83951
H         42.96346       32.27981       60.88116
H         42.93276       30.57868       60.98529
N         37.52614       34.85923       65.08850
C         37.76251       34.80896       66.52690
C         36.46685       34.56030       67.27878
O         36.37798       33.55856       67.97526
C         38.45863       36.11126       66.97293
C         39.83092       36.23036       66.27389
C         40.48873       37.54191       66.52538
O         40.78474       38.27742       65.59791
O         40.81310       37.88982       67.77023
H         37.74917       35.72029       64.57258
H         38.46101       33.97000       66.74995
H         38.60928       36.11291       68.07564
H         37.81382       36.97642       66.71026
H         39.74405       36.12442       65.17675
H         40.49572       35.41525       66.63257
N         35.41161       35.41267       67.16191
C         34.13198       35.20016       67.80941
H         33.34010       35.12249       67.03432
H         34.11110       34.27189       68.41847
H         33.90303       36.06132       68.47059
H         35.50643       36.24699       66.57228
Ca        42.18002       39.61403       68.06798
O         41.97427       41.16861       64.07936
H         42.02585       40.43972       63.41522
H         42.55207       41.87484       63.69781
O         43.19233       38.24232       63.90562
H         44.08072       38.64035       63.72664
H         43.37696       37.46482       64.48761

Ca 1.0



