%chk=holoCaM.loop1.water2.frame65.chk
%nprocshared=20
%mem=10GB
%nosave
#b3lyp/svp scf=(tight,noincore,xqc) Test 
#IOP(5/87=12) Density=Current Pop=(MK,readradii) iop(6/33=2) iop(6/42=6)

holoCaM.loop1.water2.frame65 

   0  1 
C        -18.87259       16.33005       16.87197
C        -18.87700       17.79178       17.18571
O        -18.63691       18.13830       18.33272
H        -17.88085       15.90737       17.13753
H        -19.65791       15.82262       17.47026
H        -19.06290       16.14806       15.79453
N        -19.17136       18.71368       16.22487
C        -19.16660       20.14131       16.49083
C        -20.60572       20.60461       16.67563
O        -21.36362       20.67377       15.71898
C        -18.38292       20.86019       15.37247
C        -18.15007       22.32251       15.59433
O        -17.50712       22.94968       14.77228
O        -18.60501       22.94732       16.69061
H        -19.44086       18.39147       15.28264
H        -18.61661       20.33163       17.44003
H        -18.90859       20.72380       14.40267
H        -17.37905       20.38882       15.29285
N        -21.05380       20.85345       17.93973
C        -22.41601       21.24289       18.30655
C        -22.85627       22.58324       17.74790
O        -24.04830       22.85003       17.82855
C        -22.50988       21.35672       19.85825
C        -22.61264       20.00352       20.58646
C        -24.03519       19.40314       20.53927
C        -25.04802       20.23286       21.36601
N        -26.38115       19.63752       21.33784
H        -20.38607       20.69001       18.70264
H        -23.12610       20.48328       17.91466
H        -23.34794       21.99874       20.17827
H        -21.60767       21.90107       20.21013
H        -22.35245       20.14273       21.65880
H        -21.87062       19.29652       20.15585
H        -23.99333       18.38649       20.98652
H        -24.37824       19.30217       19.48855
H        -25.13923       21.26846       20.98441
H        -24.69597       20.28850       22.42105
H        -27.02179       20.21886       21.92681
H        -26.74391       19.62828       20.35708
H        -26.35456       18.66620       21.72212
N        -21.98028       23.52152       17.29191
C        -22.40573       24.88143       16.95927
C        -21.95100       25.33936       15.57835
O        -22.28934       26.45516       15.20610
C        -21.81584       25.83218       18.00798
C        -22.17096       25.44436       19.41748
O        -21.29459       25.12212       20.20434
O        -23.45409       25.45123       19.82087
H        -20.97414       23.31270       17.30162
H        -23.51320       24.97168       16.99555
H        -22.14081       26.87822       17.82534
H        -20.72963       25.77970       17.89322
N        -21.16449       24.57114       14.77258
C        -20.66115       25.03065       13.48838
C        -19.73776       26.22499       13.63746
O        -19.97143       27.24317       13.00242
H        -20.88909       23.62469       15.06813
H        -21.51076       25.26645       12.80967
H        -20.07280       24.20946       13.02516
N        -18.65698       26.15307       14.46537
C        -17.66288       27.21390       14.63764
C        -16.24314       26.71748       14.31215
O        -15.30290       27.47339       14.51566
C        -17.75948       27.79810       16.07007
C        -17.61109       26.75953       17.13942
O        -18.60603       26.52992       18.00065
O        -16.61549       26.07433       17.20365
H        -18.53296       25.29212       15.01674
H        -17.86810       28.06663       13.95289
H        -18.75735       28.27587       16.18772
H        -16.99066       28.58822       16.20829
N        -16.01088       25.49116       13.75024
C        -14.69266       25.01033       13.34777
C        -13.77369       24.53550       14.47077
O        -12.67566       24.10871       14.15061
H        -16.81137       24.90513       13.48209
H        -14.18744       25.79497       12.74260
H        -14.83635       24.12831       12.68657
N        -14.13013       24.57051       15.78725
C        -13.26835       24.11161       16.88614
C        -13.99713       23.15224       17.82698
O        -15.19921       22.97398       17.70757
C        -12.71041       25.32955       17.67584
C        -11.56382       25.98604       16.91617
O        -13.68954       26.30857       17.89942
H        -15.04115       24.95712       16.02366
H        -12.41206       23.52665       16.48647
H        -12.28174       25.00153       18.64912
H        -14.46782       25.85381       18.29034
H        -11.17543       26.84357       17.50604
H        -10.73803       25.25522       16.78104
H        -11.90145       26.35193       15.92488
N        -13.27404       22.45426       18.76586
C        -13.84413       21.45119       19.66542
C        -13.43372       21.75901       21.11948
O        -12.28056       21.56084       21.47189
C        -13.33499       20.03308       19.22824
C        -13.61697       19.70710       17.73289
C        -13.85961       18.90249       20.12821
C        -15.09410       19.55507       17.35211
H        -12.25314       22.58818       18.79479
H        -14.95268       21.46383       19.59015
H        -12.22651       20.03761       19.32973
H        -13.10516       18.75380       17.47418
H        -13.16457       20.49409       17.09305
H        -14.96356       18.83582       20.08903
H        -13.43507       17.92756       19.80389
H        -13.55071       19.06294       21.17885
H        -15.16551       19.34070       16.26433
H        -15.56265       18.70645       17.89029
H        -15.66700       20.47805       17.55984
N        -14.34146       22.25253       22.01401
C        -14.09221       22.47695       23.44296
C        -13.98552       21.15191       24.18382
O        -14.09234       20.10798       23.56591
C        -15.24967       23.30404       24.09262
C        -15.32465       24.73500       23.54289
O        -16.47726       22.61445       23.98854
H        -15.25570       22.49480       21.65187
H        -13.15118       23.05508       23.57316
H        -15.05168       23.45132       25.17263
H        -17.07520       23.08244       23.35112
H        -16.12090       25.30484       24.06745
H        -14.35657       25.25890       23.69241
H        -15.56604       24.71509       22.47395
N        -13.81452       21.12154       25.53236
C        -13.82553       19.89574       26.32779
C        -15.16675       19.16274       26.21262
O        -15.15174       17.96639       25.96399
C        -13.47440       20.19861       27.80641
C        -12.03439       20.73273       27.92470
O        -14.38270       21.12398       28.34710
H        -13.69108       22.01887       26.02330
H        -13.03116       19.20728       25.95900
H        -13.53248       19.24161       28.37491
H        -14.21289       21.15575       29.32507
H        -11.77392       20.90416       28.98966
H        -11.31754       19.99230       27.50866
H        -11.90396       21.69065       27.37980
N        -16.36068       19.81741       26.34808
C        -17.66848       19.15422       26.24107
C        -17.80383       18.41001       24.91909
O        -18.08611       17.21946       24.92596
C        -18.80980       20.20003       26.37677
C        -20.22010       19.56845       26.32003
C        -21.35649       20.61119       26.35804
C        -21.46953       21.42584       27.66072
N        -21.82685       20.59079       28.80913
H        -16.33749       20.83511       26.51293
H        -17.77174       18.42696       27.07695
H        -18.72102       20.94883       25.55846
H        -18.68597       20.72848       27.34440
H        -20.34279       18.82660       27.13627
H        -20.32938       19.02520       25.35692
H        -22.32516       20.09006       26.19221
H        -21.20991       21.31626       25.51089
H        -22.27029       22.18562       27.51863
H        -20.52768       21.97644       27.86602
H        -21.07824       19.89117       29.00926
H        -21.94081       21.20173       29.65013
H        -22.73425       20.10209       28.62853
N        -17.61565       19.06920       23.74641
C        -17.76097       18.47261       22.41776
C        -16.85280       17.25679       22.27443
O        -17.34786       16.18190       21.96428
C        -17.48726       19.56410       21.34532
C        -18.60523       20.64008       21.37883
C        -18.29310       21.89234       20.60406
O        -17.32235       22.55398       20.89183
O        -19.13550       22.39402       19.69462
H        -17.33742       20.05912       23.81471
H        -18.80715       18.11885       22.27371
H        -17.44858       19.12493       20.32802
H        -16.49549       20.02050       21.55973
H        -18.76642       20.98336       22.41907
H        -19.55755       20.19034       21.02613
N        -15.52452       17.33789       22.53974
C        -14.63534       16.19750       22.47994
H        -13.60836       16.50524       22.77511
H        -14.97769       15.40936       23.18472
H        -14.60258       15.79017       21.44841
H        -15.13682       18.23574       22.82593
Ca       -18.67188       24.48800       18.96892
O        -15.79091       25.25748       20.16745
H        -14.83141       25.09726       20.36168
H        -15.93917       26.19903       20.43535
O        -18.56354       26.04953       21.59121
H        -17.86625       26.62153       21.99909
H        -19.02917       26.64561       20.95205

Ca 1.0



