%chk=holoCaM.loop3.water2.frame25.chk
%nprocshared=20
%mem=10GB
%nosave
#b3lyp/svp scf=(tight,noincore,xqc) Test 
#IOP(5/87=12) Density=Current Pop=(MK,readradii) iop(6/33=2) iop(6/42=6)

holoCaM.loop3.water2.frame25 

   0  1 
C         83.91639       13.62968       30.91153
C         83.21216       14.94874       31.01432
O         83.71424       15.85680       31.66118
H         84.87492       13.64633       31.47070
H         83.26727       12.83303       31.33345
H         84.12284       13.39981       29.84490
N         82.02099       15.11902       30.38423
C         81.25369       16.35532       30.43984
C         80.80660       16.63888       31.86118
O         80.38692       15.72381       32.55633
C         80.02396       16.23557       29.52726
C         79.21041       17.49303       29.39585
O         79.50995       18.54017       29.94355
O         78.13475       17.45744       28.61138
H         81.64848       14.32749       29.83507
H         81.87643       17.18937       30.04352
H         79.36453       15.42681       29.90749
H         80.35878       15.95991       28.50423
N         80.80524       17.91761       32.32312
C         80.37079       18.30866       33.65589
C         78.99357       17.74341       34.00424
O         78.90975       17.11532       35.05103
C         80.48964       19.84307       33.79636
C         80.36633       20.34674       35.24231
C         80.88196       21.79328       35.34841
C         80.88668       22.29413       36.79775
N         81.52818       23.60672       36.89199
H         81.13294       18.65885       31.68516
H         81.10098       17.87513       34.37614
H         79.77232       20.36858       33.13324
H         81.51983       20.09820       33.46021
H         81.01629       19.72013       35.89088
H         79.31627       20.25977       35.59642
H         80.27048       22.47449       34.71988
H         81.93128       21.81617       34.97737
H         81.45085       21.57855       37.43667
H         79.84194       22.35545       37.17376
H         81.50875       23.92867       37.88650
H         82.52680       23.53794       36.58542
H         81.02640       24.30351       36.29550
N         77.89958       17.84726       33.17768
C         76.60422       17.23828       33.52756
C         76.15915       16.08883       32.61775
O         75.28256       15.35166       33.04997
C         75.49321       18.29860       33.67298
C         75.11555       19.02474       32.40787
O         74.13526       19.94586       32.45131
O         75.66777       18.79082       31.34616
H         77.99871       18.35102       32.28483
H         76.69454       16.76709       34.53025
H         75.81511       19.04923       34.42546
H         74.57685       17.79986       34.05891
N         76.68426       15.85587       31.37659
C         76.34091       14.67720       30.58158
C         75.56186       14.94877       29.30520
O         75.23870       13.97133       28.64259
H         77.37250       16.50973       30.99186
H         75.71200       13.97470       31.17226
H         77.27562       14.13151       30.33496
N         75.14828       16.19465       28.91634
C         74.19102       16.36775       27.81644
C         74.73992       16.01398       26.43032
O         73.95396       15.96735       25.49535
C         73.46943       17.74920       27.90001
C         73.94921       18.94042       27.04890
N         73.42407       20.21228       27.52346
O         75.30410       19.04298       26.79062
H         75.39095       17.00207       29.50351
H         73.37938       15.63800       28.04359
H         73.36986       18.03476       28.97016
H         72.43075       17.60566       27.53207
H         72.38961       20.20791       27.38766
H         73.81431       20.97582       26.92375
N         76.06918       15.76203       26.21999
C         76.64034       15.39229       24.92678
C         77.53019       16.48437       24.34711
O         78.14886       16.25012       23.31817
H         76.73122       15.84669       27.00344
H         75.85037       15.17338       24.17674
H         77.22922       14.45951       25.06846
N         77.58683       17.72079       24.91514
C         78.32959       18.86884       24.40176
C         79.14695       19.47838       25.52498
O         78.61716       19.58773       26.62225
C         77.34198       19.95867       23.94634
C         76.42234       19.53283       22.83158
C         75.14891       19.01979       23.12681
C         76.80209       19.69839       21.48945
C         74.26754       18.67982       22.09785
C         75.91631       19.36185       20.46000
C         74.64354       18.85443       20.76231
O         73.77315       18.53968       19.78185
H         77.01839       17.88929       25.74827
H         78.96984       18.60162       23.53149
H         77.91325       20.85298       23.61024
H         76.72530       20.30080       24.80573
H         74.83443       18.89073       24.15347
H         77.77553       20.10268       21.24032
H         73.28658       18.29116       22.34052
H         76.21575       19.50502       19.42927
H         73.98544       18.66196       18.84560
N         80.39656       19.98670       25.32521
C         81.15339       20.61688       26.40790
C         81.37985       22.09572       26.08961
O         82.08629       22.40620       25.14010
C         82.48292       19.85144       26.65440
C         82.21062       18.33199       26.83588
C         83.20199       20.43371       27.88475
C         83.47585       17.49048       27.00712
H         80.81601       19.93881       24.38354
H         80.57348       20.55819       27.35601
H         83.13158       19.97938       25.75951
H         81.69980       17.94223       25.92906
H         81.54095       18.16507       27.70523
H         84.19094       19.95910       28.02856
H         83.38361       21.52018       27.76040
H         82.59136       20.27417       28.79932
H         83.19821       16.41641       27.05830
H         84.15624       17.64043       26.14185
H         84.00625       17.74208       27.94686
N         80.76948       23.06243       26.83766
C         80.90438       24.50360       26.59889
C         82.26228       25.03569       27.05284
O         83.06541       24.26867       27.56013
C         79.78165       25.25373       27.34668
O         79.89646       25.05767       28.72933
H         80.12515       22.75262       27.57774
H         80.75894       24.70477       25.51499
H         78.79516       24.87094       27.00538
H         79.83403       26.33977       27.10801
H         79.34924       25.76346       29.16241
N         82.57842       26.36136       26.91370
C         83.82235       26.94215       27.42477
C         83.83821       27.07614       28.94864
O         84.88090       27.43165       29.48180
C         84.05578       28.32943       26.81618
H         81.91767       26.97542       26.41445
H         84.66689       26.29402       27.10048
H         85.02799       28.74503       27.16101
H         84.08728       28.25568       25.70903
H         83.24369       29.02806       27.11135
N         82.73776       26.81462       29.71438
C         82.72914       26.86888       31.17261
C         82.61774       25.46975       31.76325
O         82.61641       25.34892       32.98059
C         81.58296       27.76784       31.64823
H         81.86451       26.52344       29.25872
H         83.68034       27.29734       31.55861
H         81.70841       28.79229       31.23741
H         80.60412       27.36320       31.31219
H         81.57723       27.83860       32.75761
N         82.58899       24.36310       30.96090
C         82.60550       22.99424       31.45127
C         83.91431       22.30177       31.08165
O         84.23407       21.30534       31.71546
C         81.41454       22.21300       30.86068
C         80.06352       22.80192       31.28984
C         78.91508       22.02786       30.70348
O         78.77229       21.95286       29.49457
O         78.02224       21.42704       31.51193
H         82.58784       24.47810       29.94454
H         82.54123       22.98542       32.56182
H         81.46603       21.15434       31.19166
H         81.48880       22.23462       29.74977
H         79.98328       23.85930       30.96631
H         79.99362       22.77644       32.39530
N         84.72067       22.74693       30.07212
C         85.97073       22.10373       29.73383
H         86.67843       22.19023       30.58377
H         85.80370       21.03387       29.49223
H         86.41998       22.59927       28.84532
H         84.45506       23.55553       29.49979
Ca        76.66305       19.11984       28.55653
O         75.21535       21.93170       29.73072
H         74.26413       22.03754       29.47813
H         75.18882       21.60426       30.66352
O         76.74055       21.93357       27.06586
H         76.00591       22.59018       27.16001
H         77.43926       22.41203       26.55319

Ca 1.0



