%chk=holoCaM.loop2.water2.frame478.chk
%nprocshared=20
%mem=10GB
%nosave
#b3lyp/svp scf=(tight,noincore,xqc) Test 
#IOP(5/87=12) Density=Current Pop=(MK,readradii) iop(6/33=2) iop(6/42=6)

holoCaM.loop2.water2.frame478 

   -2  1 
C        -15.39689       71.83468       70.16878
C        -16.73048       72.00557       70.83433
O        -16.89582       71.60557       71.97738
H        -14.66388       71.36092       70.85396
H        -15.51814       71.19093       69.27111
H        -15.00782       72.82465       69.84912
N        -17.73657       72.61492       70.15378
C        -19.08794       72.79880       70.67846
C        -19.72506       71.41868       70.80492
O        -20.00235       70.79964       69.78629
C        -19.82505       73.72737       69.67810
C        -21.25572       74.15551       69.84620
O        -21.74991       74.76345       68.91351
O        -22.02039       73.91420       70.92784
H        -17.51441       72.96557       69.20761
H        -19.02039       73.30544       71.66648
H        -19.79208       73.21158       68.69324
H        -19.23182       74.66465       69.58980
N        -19.87063       70.82359       72.02564
C        -20.35217       69.45254       72.18582
C        -21.79541       69.33833       71.74620
O        -22.06242       68.63945       70.77805
C        -20.18482       68.96492       73.63455
H        -19.54321       71.33646       72.85197
H        -19.71993       68.78760       71.55439
H        -20.51871       67.90869       73.72566
H        -19.11510       69.01683       73.92996
H        -20.77029       69.57775       74.34887
N        -22.78619       70.00114       72.41095
C        -24.18282       69.94838       71.98662
C        -24.42487       70.65723       70.65397
O        -25.53751       70.56780       70.15266
C        -25.12754       70.51177       73.07748
C        -24.89375       71.94887       73.46885
O        -23.97679       72.59767       72.99353
O        -25.70280       72.52116       74.37983
H        -22.53749       70.53374       73.25710
H        -24.46001       68.87700       71.86223
H        -25.02522       69.89220       73.99413
H        -26.17643       70.41313       72.72139
N        -23.45151       71.37246       70.01333
C        -23.66474       72.00886       68.72356
C        -24.65257       73.16586       68.74924
O        -24.98460       73.64213       67.67309
H        -22.51139       71.44216       70.41858
H        -24.02167       71.23198       68.01345
H        -22.69985       72.38706       68.32639
N        -25.17822       73.67132       69.90789
C        -26.23830       74.68159       69.91564
C        -25.84072       76.02682       69.30701
O        -26.72811       76.81820       69.02179
C        -26.78538       74.91893       71.33891
C        -25.83495       75.72491       72.19803
N        -26.19365       76.95528       72.63385
O        -24.73343       75.28111       72.48300
H        -24.87673       73.27478       70.80430
H        -27.06402       74.24815       69.30799
H        -27.02164       73.95025       71.83145
H        -27.73963       75.47918       71.24199
H        -27.10962       77.35861       72.38848
H        -25.55026       77.51647       73.20710
N        -24.53474       76.36635       69.12302
C        -24.08842       77.60594       68.50629
C        -23.12590       78.41165       69.36244
O        -22.57630       79.36548       68.82782
H        -23.81333       75.70181       69.41004
H        -24.93881       78.25823       68.21075
H        -23.54517       77.32402       67.57984
N        -22.87581       78.13325       70.67826
C        -21.91729       78.89685       71.48634
C        -20.91981       77.98161       72.18146
O        -21.03720       76.76932       72.09176
C        -22.66018       79.76814       72.52967
C        -23.47856       80.86835       71.84298
O        -23.48575       78.95821       73.32429
H        -23.40233       77.37689       71.14085
H        -21.31824       79.57869       70.84257
H        -21.91339       80.27731       73.17895
H        -23.87409       79.53852       74.03009
H        -23.96855       81.50804       72.60728
H        -22.80510       81.51465       71.23880
H        -24.25833       80.43617       71.18334
N        -19.89244       78.52422       72.89413
C        -18.90085       77.76970       73.65301
C        -18.95612       78.23281       75.10313
O        -18.82588       79.42421       75.35457
C        -17.48400       77.98897       73.03259
C        -17.43374       77.34767       71.61906
C        -16.37698       77.40022       73.93241
C        -16.11944       77.58304       70.86995
H        -19.79499       79.55183       72.90002
H        -19.10799       76.67575       73.62157
H        -17.29777       79.08310       72.94965
H        -18.24457       77.77682       70.99388
H        -17.60440       76.25032       71.69934
H        -16.38423       77.88519       74.92792
H        -16.50792       76.30541       74.05457
H        -15.36884       77.60326       73.52217
H        -15.25941       77.11036       71.38559
H        -16.18580       77.12433       69.86101
H        -15.93183       78.67123       70.75611
N        -19.06630       77.32287       76.11372
C        -18.97875       77.66754       77.53229
C        -17.54882       77.36479       77.98771
O        -16.80006       76.82970       77.18674
C        -20.05918       76.84687       78.28566
C        -20.37695       77.24023       79.70509
O        -19.91645       78.24711       80.21367
O        -21.26045       76.50086       80.40216
H        -19.07681       76.32248       75.86800
H        -19.16783       78.75576       77.65983
H        -19.75940       75.77574       78.25883
H        -21.02237       76.93851       77.73998
N        -17.05474       77.70829       79.21051
C        -15.66072       77.46385       79.57261
C        -15.29946       75.98209       79.51262
O        -14.31335       75.68278       78.85440
C        -15.29922       78.07842       80.94464
C        -13.85110       77.81390       81.30072
C        -12.80909       78.30404       80.49137
C        -13.53152       77.05412       82.43997
C        -11.47626       78.03304       80.81479
C        -12.19695       76.78714       82.75969
C        -11.17036       77.27497       81.94747
H        -17.64995       78.19777       79.88546
H        -15.02350       77.99571       78.82991
H        -15.95361       77.67558       81.73644
H        -15.47275       79.17555       80.91557
H        -13.02483       78.89105       79.60806
H        -14.31392       76.66056       83.07690
H        -10.68012       78.40902       80.18518
H        -11.95885       76.19835       83.63599
H        -10.13798       77.06470       82.19516
N        -16.01183       74.99352       80.14423
C        -15.65775       73.57868       80.08759
C        -15.37672       73.10311       78.68007
O        -14.37201       72.44594       78.44711
C        -16.90709       72.87298       80.63766
C        -17.40650       73.87734       81.64537
C        -17.24754       75.18436       80.87914
H        -14.78253       73.39820       80.75037
H        -17.69670       72.80966       79.85335
H        -16.72156       71.84939       81.02721
H        -18.42931       73.69445       82.03723
H        -16.68844       73.88302       82.49736
H        -18.07212       75.33582       80.14844
H        -17.23188       76.00468       81.61378
N        -16.23890       73.43508       77.68516
C        -16.09192       73.00629       76.30382
C        -14.79150       73.53869       75.72119
O        -13.97281       72.74122       75.28675
C        -17.33537       73.42171       75.48743
C        -18.61493       72.81311       76.11754
C        -19.80984       73.04470       75.26936
O        -20.14509       74.28103       74.89280
O        -20.47148       72.10152       74.87394
H        -17.04037       74.03010       77.93896
H        -16.06186       71.89390       76.27447
H        -17.21590       73.04521       74.44727
H        -17.43056       74.52910       75.44590
H        -18.83145       73.25985       77.10630
H        -18.48272       71.71678       76.24363
N        -14.51224       74.87157       75.73536
C        -13.25707       75.44286       75.28901
H        -12.55256       74.67579       74.90650
H        -13.44801       76.18474       74.48690
H        -12.77201       75.96284       76.14366
H        -15.20569       75.51951       76.11682
Ca       -21.28922       74.21162       73.00258
O        -22.78498       76.54980       75.30487
H        -21.82650       76.77189       75.41193
H        -23.26337       77.28845       75.75868
O        -23.22232       73.47140       75.99702
H        -23.34312       74.15519       76.70257
H        -23.20929       72.61008       76.48518

Ca 1.0



