%chk=holoCaM.loop3.water2.frame389.chk
%nprocshared=20
%mem=10GB
%nosave
#b3lyp/svp scf=(tight,noincore,xqc) Test 
#IOP(5/87=12) Density=Current Pop=(MK,readradii) iop(6/33=2) iop(6/42=6)

holoCaM.loop3.water2.frame389 

   0  1 
C         80.97691       62.73952       91.91428
C         81.23826       61.77523       93.03125
O         80.40592       60.91265       93.26911
H         80.04667       63.30714       92.12495
H         81.81425       63.45855       91.79527
H         80.85483       62.17731       90.96486
N         82.38593       61.84965       93.76119
C         82.68336       60.91539       94.83814
C         81.64210       61.05444       95.93662
O         81.54185       62.11334       96.54179
C         84.10734       61.16332       95.36213
C         84.57039       60.15624       96.37037
O         85.70799       60.23669       96.79128
O         83.77851       59.14999       96.79049
H         83.07657       62.57871       93.52285
H         82.66086       59.88863       94.40824
H         84.18003       62.18297       95.80100
H         84.80814       61.10457       94.50054
N         80.78207       60.02905       96.18952
C         79.67714       60.13500       97.13369
C         80.19258       60.20294       98.55854
O         79.97620       61.20654       99.22378
C         78.69552       58.94571       96.96477
C         78.06675       58.83603       95.55747
C         77.17503       60.03858       95.20122
C         76.44569       59.87404       93.85640
N         77.36126       59.87563       92.71374
H         80.87846       59.17014       95.63006
H         79.11439       61.06834       96.92075
H         77.87688       59.03399       97.71231
H         79.22979       57.99142       97.16045
H         77.43650       57.92018       95.54499
H         78.86150       58.70279       94.79702
H         77.76515       60.97759       95.16851
H         76.40162       60.13599       95.99365
H         75.74210       60.72828       93.74249
H         75.84679       58.93688       93.86229
H         76.80252       59.80538       91.83297
H         77.89949       60.77134       92.69073
H         78.01451       59.06188       92.75119
N         80.86461       59.14914       99.10135
C         81.34901       59.13319      100.48125
C         82.48198       60.12617      100.73731
O         82.84481       60.29918      101.89281
C         81.76748       57.70140      100.87783
C         82.81301       57.13941       99.95687
O         84.01828       57.72347       99.85788
O         82.55613       56.16506       99.26916
H         80.98808       58.30857       98.51892
H         80.49944       59.41201      101.14452
H         80.86443       57.05311      100.82411
H         82.13710       57.67536      101.92561
N         83.09076       60.81052       99.72646
C         84.12618       61.80643       99.94119
C         85.36443       61.24639      100.60528
O         85.74653       61.75510      101.64955
H         82.80239       60.64846       98.75320
H         83.70966       62.63780      100.55221
H         84.42582       62.22903       98.95757
N         86.06011       60.21877      100.03924
C         87.31108       59.69410      100.58554
C         88.48170       59.83132       99.60233
O         89.54982       59.31865       99.90858
C         87.14529       58.22572      101.05329
C         86.93746       57.20039       99.96895
N         87.00290       55.88403      100.26792
O         86.74566       57.54146       98.81592
H         85.68668       59.79740       99.17981
H         87.59758       60.25669      101.50015
H         86.31882       58.14749      101.79295
H         88.08601       57.94720      101.57566
H         87.18324       55.56880      101.23178
H         86.91453       55.17900       99.52304
N         88.37689       60.51448       98.42090
C         89.48832       60.66000       97.48629
C         89.54108       59.56830       96.42824
O         90.47813       59.57306       95.64343
H         87.51058       61.02099       98.20157
H         90.44877       60.68855       98.04552
H         89.39791       61.63642       96.96427
N         88.58163       58.60468       96.34153
C         88.59304       57.49898       95.38898
C         87.32477       57.56166       94.50014
O         86.13504       57.84067       95.19187
C         88.72501       56.17947       96.18228
C         90.06000       56.12481       96.89331
C         90.13604       56.27410       98.28692
C         91.24656       55.93759       96.16316
C         91.37103       56.25186       98.93905
C         92.48246       55.90037       96.81820
C         92.54813       56.06329       98.20977
O         93.73186       56.04158       98.85504
H         87.79897       58.63081       97.00154
H         89.46091       57.56195       94.69672
H         88.64007       55.28676       95.52538
H         87.90216       56.12708       96.91962
H         89.24484       56.42738       98.86956
H         91.21368       55.81206       95.08812
H         91.41168       56.38438      100.01307
H         93.38750       55.74843       96.24372
H         94.57058       55.91460       98.38928
N         87.21666       56.42032       93.57939
C         85.93588       56.20013       92.86816
C         86.00681       54.78208       92.30708
O         86.81277       54.52392       91.42324
C         85.63814       57.26381       91.73777
C         85.28904       58.65786       92.33884
C         84.48100       56.79887       90.82513
C         84.99962       59.75579       91.31181
H         88.01177       56.45384       92.89933
H         85.10001       56.21902       93.60161
H         86.53864       57.35015       91.09103
H         86.13650       59.03997       92.93039
H         84.40127       58.56075       93.00331
H         83.53862       56.72787       91.39665
H         84.32793       57.49063       89.97418
H         84.70290       55.82226       90.35361
H         84.09775       59.53464       90.70719
H         84.80035       60.70924       91.84613
H         85.87566       59.89693       90.64506
N         85.20791       53.79918       92.81603
C         85.23130       52.41232       92.34928
C         84.57065       52.28561       90.98684
O         84.13196       53.28430       90.44150
C         84.50287       51.50961       93.37028
O         83.16073       51.88855       93.49762
H         84.58056       54.04330       93.59675
H         86.28345       52.05349       92.30187
H         85.01080       51.59986       94.35389
H         84.56213       50.44517       93.05637
H         82.75928       51.26832       94.16003
N         84.41484       51.07301       90.39090
C         83.62517       50.88561       89.17829
C         82.17687       51.29470       89.42385
O         81.63368       52.06172       88.64370
C         83.67276       49.41930       88.73471
H         84.82804       50.24211       90.84309
H         84.05508       51.48947       88.34684
H         83.26016       48.74926       89.51863
H         83.08512       49.28479       87.80089
H         84.72354       49.12316       88.52765
N         81.50626       50.82651       90.51874
C         80.10644       51.12941       90.81969
C         79.83333       52.62141       90.87335
O         78.97067       53.08392       90.13855
C         79.70456       50.48582       92.15359
H         82.02324       50.21841       91.17206
H         79.46865       50.68324       90.02459
H         80.31810       50.88801       92.98844
H         78.63348       50.68632       92.37003
H         79.85281       49.38627       92.10584
N         80.53961       53.43922       91.70273
C         80.34493       54.88783       91.76225
C         80.50079       55.48579       90.37420
O         79.57679       56.12954       89.89683
C         81.34347       55.52529       92.75594
C         81.00906       55.17238       94.21425
C         82.02207       55.74592       95.16355
O         82.70507       54.93004       95.98813
O         82.22143       56.94912       95.20553
H         81.27389       53.01191       92.28400
H         79.31405       55.11964       92.11365
H         81.30225       56.63357       92.66147
H         82.37233       55.18136       92.51419
H         80.98076       54.07103       94.35024
H         80.00759       55.58368       94.46800
N         81.62289       55.26141       89.64583
C         81.78025       55.72828       88.28712
H         82.75794       55.38713       87.88372
H         80.97385       55.30538       87.64943
H         81.74191       56.83629       88.25569
H         82.37461       54.70764       90.05991
Ca        85.41095       56.21739       96.60592
O         84.43034       54.15257       99.02177
H         85.28704       53.72851       98.76830
H         84.61000       54.58077       99.89664
O         85.78682       53.60846       95.74929
H         85.00964       53.42505       96.33464
H         86.56845       53.61931       96.35437

Ca 1.0



