%chk=holoCaM.loop4.water3.frame264.chk
%nprocshared=20
%mem=10GB
%nosave
#b3lyp/svp scf=(tight,noincore,xqc) Test 
#IOP(5/87=12) Density=Current Pop=(MK,readradii) iop(6/33=2) iop(6/42=6)

holoCaM.loop4.water3.frame264 

   -3  1 
C         38.74847       -8.09452       88.80856
C         37.52148       -8.59299       88.11152
O         37.66794       -9.18498       87.05259
H         39.29073       -7.39056       88.14253
H         38.49846       -7.57972       89.75778
H         39.41071       -8.95843       89.03228
N         36.27331       -8.39041       88.63202
C         35.07476       -8.90006       87.97530
C         33.80100       -8.40065       88.65723
O         33.62669       -8.62782       89.84679
C         35.06954      -10.44749       87.98626
C         33.99531      -11.01534       87.10969
O         33.79390      -12.34545       87.07917
O         33.33851      -10.28782       86.38405
H         36.17997       -7.84788       89.50444
H         35.09366       -8.53805       86.92209
H         34.93195      -10.80324       89.02998
H         36.02145      -10.86801       87.60891
N         32.85622       -7.73261       87.93338
C         31.61064       -7.19629       88.47884
C         30.36793       -7.84651       87.83308
O         29.30245       -7.69168       88.41456
C         31.65494       -5.63546       88.31138
C         32.78608       -5.04838       89.20563
C         30.31499       -4.93568       88.61690
C         33.15268       -3.59744       88.88056
H         33.04639       -7.56968       86.94044
H         31.53797       -7.43614       89.56386
H         31.89258       -5.42776       87.24440
H         33.72198       -5.62781       89.06823
H         32.49288       -5.13005       90.27645
H         30.38645       -3.84242       88.44995
H         29.52326       -5.28330       87.92265
H         29.99793       -5.12026       89.66447
H         32.30339       -2.90229       89.02148
H         33.97413       -3.26891       89.55274
H         33.51335       -3.52352       87.83394
N         30.39190       -8.55157       86.65265
C         29.17303       -9.09914       86.02723
C         29.25798      -10.58170       85.61010
O         28.27650      -11.08248       85.07865
C         28.74713       -8.21801       84.83116
C         29.69873       -8.19819       83.67236
O         30.86598       -8.85995       83.71857
O         29.40221       -7.57414       82.66697
H         31.27553       -8.62291       86.13499
H         28.32406       -9.03162       86.74185
H         28.60162       -7.17309       85.18312
H         27.76715       -8.58573       84.45628
N         30.35622      -11.35651       85.83969
C         30.43219      -12.78709       85.53333
C         30.53352      -13.18493       84.05625
O         30.58501      -14.37855       83.79742
H         31.13693      -10.94634       86.35439
H         29.55902      -13.29388       85.99670
H         31.34513      -13.19402       86.01991
N         30.58983      -12.27606       83.04275
C         30.69930      -12.61324       81.60792
C         32.01252      -13.29408       81.15310
O         32.13932      -13.53782       79.95990
C         30.54070      -11.32751       80.75784
C         31.59695      -10.29336       81.05729
O         32.44930      -10.47903       82.09035
O         31.63424       -9.26614       80.40403
H         30.50156      -11.28764       83.30355
H         29.85452      -13.28709       81.34256
H         29.54418      -10.87204       80.94578
H         30.58105      -11.59488       79.67886
N         33.02203      -13.63144       82.00143
C         34.26828      -14.25940       81.57006
C         35.32736      -13.32626       80.96824
O         36.39630      -13.83770       80.66679
H         32.87254      -13.53745       83.00715
H         34.04218      -15.09803       80.87278
H         34.74477      -14.71150       82.46577
N         35.13727      -11.98643       80.75147
C         36.15776      -11.10214       80.16334
C         36.30778       -9.78361       80.91983
O         35.32242       -9.07484       81.05277
C         35.76043      -10.72262       78.72818
C         35.81020      -11.90928       77.76347
C         35.51006      -11.44394       76.36321
N         34.30098      -10.92134       76.05226
O         36.37129      -11.53268       75.50084
H         34.21564      -11.58557       80.94591
H         37.14876      -11.60537       80.11171
H         36.49007       -9.96773       78.35403
H         34.74876      -10.25925       78.73169
H         35.08513      -12.69602       78.06020
H         36.83508      -12.34288       77.79235
H         33.55928      -10.84622       76.76347
H         34.10393      -10.59386       75.09530
N         37.53287       -9.33167       81.33348
C         37.73554       -7.99605       81.91228
C         37.31484       -6.90203       80.92603
O         37.92268       -6.74300       79.87707
C         39.21281       -7.79733       82.38168
C         39.55209       -6.32933       82.71036
C         39.48596       -8.64818       83.63355
H         38.35192       -9.94340       81.19675
H         37.09559       -7.90597       82.81431
H         39.89876       -8.10869       81.56299
H         40.60569       -6.24446       83.05303
H         39.46387       -5.69045       81.80696
H         38.88350       -5.93196       83.49923
H         39.28068       -9.72137       83.44637
H         40.54492       -8.54318       83.95161
H         38.84283       -8.30464       84.47431
N         36.25579       -6.10705       81.24561
C         35.73786       -4.99333       80.45098
C         36.58660       -3.73300       80.65394
O         37.53600       -3.76128       81.42447
C         34.27813       -4.76293       80.93522
C         33.42104       -3.79220       80.16845
N         33.14982       -3.99056       78.85948
O         32.92249       -2.84024       80.74839
H         35.74407       -6.34789       82.10370
H         35.70736       -5.29136       79.38090
H         34.29932       -4.46649       82.00941
H         33.76283       -5.73703       80.85147
H         33.53378       -4.80413       78.35896
H         32.53790       -3.33506       78.35114
N         36.26516       -2.57070       80.01364
C         36.87871       -1.27093       80.29880
C         36.56903       -0.85227       81.72952
O         37.46803       -0.42532       82.43438
C         36.31228       -0.20350       79.33614
C         36.87891        1.17628       79.59758
C         38.24887        1.44241       79.42513
C         36.02996        2.21306       80.01915
C         38.75580        2.72422       79.66918
C         36.53856        3.49059       80.26730
C         37.90435        3.75145       80.09089
O         38.40705        4.98138       80.32151
H         35.50950       -2.59831       79.31586
H         37.97906       -1.32434       80.14107
H         35.20553       -0.18228       79.44676
H         36.53709       -0.48945       78.28621
H         38.92394        0.66201       79.09782
H         34.97295        2.03120       80.16055
H         39.81172        2.92020       79.52950
H         35.86942        4.27613       80.59542
H         37.85037        5.71886       80.61053
N         35.29557       -0.93518       82.20923
C         34.89813       -0.59193       83.57678
C         35.49566       -1.53247       84.63671
O         35.27802       -1.28630       85.81480
C         33.35035       -0.61060       83.68799
C         32.65941        0.41952       82.76921
C         33.00966        1.83066       83.15042
O         32.70867        2.29151       84.37944
O         33.55823        2.56852       82.34823
H         34.57397       -1.25981       81.55544
H         35.25075        0.43812       83.80036
H         33.03669       -0.40079       84.73400
H         32.98344       -1.62811       83.42535
H         31.55854        0.30280       82.85784
H         32.92519        0.23762       81.70593
N         36.25317       -2.61729       84.30199
C         36.87079       -3.54389       85.25091
C         38.39593       -3.50678       85.14104
O         39.04937       -4.28609       85.82049
C         36.34224       -4.96500       84.95402
C         34.82436       -5.03202       85.17914
C         34.18810       -6.31571       84.74450
O         32.97892       -6.43018       84.84342
O         34.89816       -7.31528       84.18958
H         36.40309       -2.82814       83.31321
H         36.61600       -3.28363       86.30170
H         36.83475       -5.71830       85.60863
H         36.58487       -5.20997       83.89979
H         34.32723       -4.23327       84.59061
H         34.61349       -4.87138       86.25600
N         39.03309       -2.61102       84.33205
C         40.46735       -2.51361       84.17396
H         41.01303       -3.27670       84.76316
H         40.72059       -2.64011       83.09951
H         40.79997       -1.50268       84.49408
H         38.49000       -1.93565       83.79811
Ca        33.70917       -8.96028       83.19974
O         34.17096      -11.78517       84.02931
H         34.78786      -12.54858       84.15727
H         33.35377      -12.03308       84.52891
O         36.21654      -10.17634       84.56764
H         36.63874       -9.29072       84.67494
H         36.93047      -10.82893       84.77598
O         32.12051       -6.68276       82.34830
H         31.44106       -5.98441       82.18771
H         32.08759       -7.25213       81.54465

Ca 1.0



