%chk=holoCaM-CaMKII.loop2.water1.frame367.chk
%nprocshared=20
%mem=10GB
%nosave
#b3lyp/svp scf=(tight,noincore,xqc) Test 
#IOP(5/87=12) Density=Current Pop=(MK,readradii) iop(6/33=2) iop(6/42=6)

holoCaM-CaMKII.loop2.water1.frame367 

   -2  1 
C         41.08237       70.70214       39.39745
C         41.39051       71.13402       40.80480
O         42.32655       70.61364       41.39378
H         40.21510       71.25814       38.98050
H         41.96195       70.91023       38.75023
H         40.85687       69.61733       39.36782
N         40.67270       72.13255       41.38758
C         41.02441       72.71451       42.67686
C         40.56937       71.86349       43.85287
O         39.37651       71.62889       43.99013
C         40.42419       74.12826       42.77129
C         40.81745       74.80218       44.05041
O         42.11775       74.90632       44.38369
O         39.96072       75.24119       44.79903
H         39.92940       72.58170       40.82919
H         42.12653       72.85366       42.70701
H         39.31497       74.09314       42.68488
H         40.81841       74.72972       41.92357
N         41.47594       71.42513       44.77774
C         41.11288       70.71599       45.99854
C         41.62340       71.47560       47.22422
O         42.33847       70.90037       48.03337
C         41.67824       69.29009       45.93713
H         42.47326       71.62041       44.62403
H         40.00838       70.63491       46.09111
H         42.78708       69.31330       45.85614
H         41.39565       68.72109       46.84908
H         41.26916       68.75744       45.05301
N         41.27844       72.78278       47.42567
C         41.68501       73.56800       48.59751
C         41.05886       74.96410       48.58434
O         40.35827       75.27770       49.53713
C         43.22022       73.60279       48.83336
C         44.07805       73.77468       47.61812
O         44.00157       74.86274       46.84629
O         44.88145       72.90252       47.32486
H         40.68078       73.23491       46.71733
H         41.27720       73.07420       49.50882
H         43.51999       72.63296       49.28520
H         43.46714       74.37814       49.59034
N         41.23386       75.84401       47.55524
C         40.61693       77.16645       47.51571
C         41.61079       78.30613       47.37788
O         41.16343       79.44373       47.33428
H         41.78166       75.55594       46.74070
H         40.01486       77.35730       48.42925
H         39.92614       77.20560       46.64729
N         42.96011       78.10534       47.31387
C         43.92980       79.19871       47.23169
C         43.87389       80.00303       45.92292
O         44.64628       80.94529       45.80716
C         45.36336       78.66674       47.49191
C         45.91340       77.76575       46.41842
N         47.14856       77.23291       46.54915
O         45.25565       77.51926       45.42296
H         43.32130       77.14836       47.39654
H         43.71589       79.89532       48.07256
H         45.36557       78.11234       48.45637
H         46.05795       79.52773       47.59537
H         47.72001       77.42218       47.38485
H         47.53478       76.63012       45.81002
N         42.99179       79.73092       44.91132
C         42.90245       80.55470       43.71270
C         44.04141       80.34637       42.73449
O         44.22714       81.20200       41.88157
H         42.30860       78.96901       45.00493
H         42.84228       81.62339       44.01771
H         41.96402       80.32761       43.16374
N         44.77177       79.19392       42.72067
C         45.85394       78.92391       41.77545
C         46.09952       77.42808       41.61750
O         46.31099       76.73610       42.60156
C         47.19078       79.57469       42.21761
C         47.22149       81.09203       42.06116
O         47.48990       79.24424       43.55142
H         44.50130       78.44857       43.36960
H         45.58201       79.31189       40.76872
H         47.99664       79.20845       41.53473
H         47.99863       78.39265       43.54128
H         48.23885       81.46445       42.30469
H         46.99569       81.36774       41.00771
H         46.50647       81.58700       42.74499
N         46.18149       76.89171       40.36575
C         46.60047       75.51855       40.08463
C         47.99967       75.30330       40.65302
O         48.89797       76.08425       40.36978
C         46.56497       75.25067       38.54446
C         45.09870       75.32281       38.03182
C         47.18172       73.87983       38.18894
C         44.98333       75.33523       36.50692
H         46.01381       77.51963       39.56559
H         45.89502       74.80182       40.55932
H         47.17401       76.03831       38.04724
H         44.61225       76.25605       38.38025
H         44.51449       74.47044       38.44565
H         47.19636       73.71115       37.09490
H         48.23942       73.82541       38.51427
H         46.61376       73.05647       38.66829
H         45.52200       76.21627       36.09727
H         45.38543       74.41132       36.04819
H         43.91294       75.41455       36.22217
N         48.24740       74.21821       41.43593
C         49.54085       73.89383       42.03250
C         50.19949       72.81301       41.20766
O         49.62418       72.40710       40.20918
C         49.31853       73.31864       43.44917
C         48.47083       74.16957       44.33153
O         47.25251       74.52586       43.89525
O         48.82985       74.44861       45.46404
H         47.48556       73.53857       41.56747
H         50.20105       74.78837       42.06633
H         50.28436       73.09465       43.95130
H         48.75255       72.36735       43.33915
N         51.39605       72.26809       41.55933
C         51.94816       71.13815       40.82864
C         51.03383       69.91181       40.97405
O         50.66909       69.37047       39.94154
C         53.41835       70.85266       41.21329
C         54.02895       69.79360       40.32353
C         54.14861       70.00772       38.93658
C         54.49102       68.58449       40.87005
C         54.71246       69.02822       38.11563
C         55.05551       67.60743       40.04386
C         55.16518       67.82859       38.66834
H         51.91290       72.65249       42.36603
H         51.98546       71.42918       39.75498
H         53.51487       70.55471       42.26944
H         54.01285       71.78427       41.09144
H         53.81011       70.93242       38.48688
H         54.41235       68.39578       41.93336
H         54.79929       69.20108       37.05048
H         55.40828       66.67781       40.47040
H         55.60239       67.07162       38.03052
N         50.57297       69.42778       42.18328
C         49.72649       68.23696       42.31371
C         48.34373       68.32213       41.67424
O         47.62191       67.33513       41.71993
C         49.56622       68.05877       43.82975
C         50.84666       68.67035       44.35852
C         50.93661       69.91988       43.49588
H         50.29968       67.38608       41.88325
H         48.73856       68.71396       44.19320
H         49.35240       67.01787       44.15336
H         50.84437       68.86817       45.45142
H         51.69774       67.99803       44.10583
H         50.16060       70.63719       43.83062
H         51.92360       70.39229       43.58517
N         47.90538       69.45849       41.06804
C         46.60776       69.60663       40.42256
C         46.79961       69.61264       38.91576
O         46.05175       68.93335       38.22767
C         45.92257       70.89938       40.90501
C         45.68463       70.88980       42.42626
C         45.04645       72.14980       42.94108
O         44.81468       72.26765       44.26008
O         44.74559       73.06762       42.19381
H         48.52065       70.27862       41.05103
H         45.92877       68.75922       40.66922
H         44.94509       71.01398       40.38614
H         46.55977       71.76291       40.63673
H         46.65450       70.77176       42.95390
H         45.02752       70.03349       42.69143
N         47.83261       70.29334       38.34107
C         48.13155       70.27481       36.92615
H         49.12787       69.80509       36.77475
H         47.38094       69.70547       36.34202
H         48.17132       71.31645       36.54731
H         48.48272       70.81851       38.92922
Ca        45.51321       74.84853       45.22282
O         42.95281       76.71526       42.58294
H         42.09683       77.21208       42.61434
H         42.97610       76.29753       41.68700

Ca 1.0



