%chk=holoCaM.loop3.water3.frame118.chk
%nprocshared=20
%mem=10GB
%nosave
#b3lyp/svp scf=(tight,noincore,xqc) Test 
#IOP(5/87=12) Density=Current Pop=(MK,readradii) iop(6/33=2) iop(6/42=6)

holoCaM.loop3.water3.frame118 

   0  1 
C         -2.84514       22.81003       11.74494
C         -3.13847       21.76700       12.77782
O         -3.66919       22.10038       13.82829
H         -1.75356       22.83145       11.54243
H         -3.38845       22.56856       10.80828
H         -3.16221       23.81388       12.09969
N         -2.79388       20.46989       12.54589
C         -3.01071       19.40188       13.50859
C         -1.63911       18.90559       13.95615
O         -0.85889       18.46375       13.12480
C         -3.88248       18.30921       12.86352
C         -4.36399       17.27374       13.83547
O         -4.14816       17.39799       15.15484
O         -4.99876       16.32016       13.42653
H         -2.32995       20.23396       11.65427
H         -3.56903       19.79715       14.38563
H         -3.30484       17.81873       12.04984
H         -4.78929       18.77247       12.41673
N         -1.24360       19.08031       15.24822
C          0.14310       18.92069       15.70623
C          0.66735       17.48559       15.81266
O          1.86715       17.33967       15.99961
C          0.37354       19.75859       16.98635
C         -0.48832       19.36864       18.20326
C         -0.41693       20.47042       19.27245
C         -1.42739       20.22448       20.39844
N         -1.43772       21.33479       21.34990
H         -1.92744       19.53221       15.86792
H          0.78309       19.40990       14.93692
H          0.11201       20.80315       16.70337
H          1.44794       19.75261       17.27189
H         -0.17286       18.38426       18.60994
H         -1.55174       19.28993       17.91139
H         -0.68661       21.44032       18.79713
H          0.61423       20.54816       19.67847
H         -1.19230       19.27363       20.92411
H         -2.43841       20.14374       19.95145
H         -2.15827       21.14809       22.08440
H         -0.50070       21.43195       21.80215
H         -1.68852       22.22485       20.85926
N         -0.13072       16.39124       15.65562
C          0.38592       15.01196       15.55089
C          0.06369       14.40401       14.18330
O          0.47333       13.27792       13.93423
C         -0.09775       14.10051       16.71766
C         -1.58811       13.98565       16.85971
O         -2.08129       13.37286       17.79227
O         -2.36203       14.67798       16.02218
H         -1.13714       16.56093       15.54415
H          1.49580       15.01467       15.62067
H          0.29406       14.52608       17.66624
H          0.33340       13.08223       16.59761
N         -0.61804       15.10336       13.22711
C         -0.86213       14.62139       11.88123
C         -1.86540       13.49440       11.77215
O         -2.10108       13.07822       10.64624
H         -0.92607       16.06119       13.41373
H          0.10473       14.31681       11.42230
H         -1.26715       15.46215       11.27583
N         -2.49494       12.93085       12.84910
C         -3.40463       11.79988       12.67360
C         -4.69356       12.18689       11.95108
O         -5.36675       11.29539       11.45183
C         -3.70138       11.07376       14.00215
C         -4.67059       11.80603       14.89621
N         -5.82714       11.21508       15.27848
O         -4.41477       12.93417       15.27984
H         -2.27480       13.25427       13.79907
H         -2.84690       11.06397       12.05078
H         -2.74553       10.90214       14.54427
H         -4.12766       10.07644       13.76175
H         -6.06220       10.26026       14.96990
H         -6.49287       11.70957       15.88850
N         -5.11753       13.48636       11.88964
C         -6.29537       13.92322       11.15291
C         -7.42293       14.48421       12.01107
O         -8.41165       14.89116       11.42129
H         -4.56623       14.21119       12.36496
H         -6.72961       13.08377       10.56790
H         -5.97363       14.69835       10.42407
N         -7.39676       14.48658       13.38178
C         -8.55123       14.88069       14.19833
C         -8.18709       15.96245       15.20904
O         -7.27617       15.74231       15.99143
C         -9.08337       13.66984       14.99914
C         -9.58335       12.51146       14.16124
C         -8.70308       11.73115       13.38902
C        -10.94812       12.17173       14.18341
C         -9.17796       10.63897       12.65713
C        -11.42099       11.08008       13.44990
C        -10.53577       10.30753       12.68615
O        -10.97621        9.24354       11.98482
H         -6.56765       14.12191       13.87055
H         -9.38975       15.24336       13.56493
H         -9.92398       14.04649       15.62472
H         -8.30523       13.28980       15.69446
H         -7.64596       11.94812       13.36058
H        -11.65026       12.74808       14.77292
H         -8.48639       10.04346       12.07426
H        -12.47452       10.83221       13.48233
H        -11.90548        8.97262       11.99065
N         -8.91072       17.12484       15.29861
C         -8.68419       18.13210       16.34124
C         -9.93553       18.34356       17.20160
O        -10.98104       18.71154       16.68909
C         -8.15652       19.47903       15.75887
C         -9.08408       20.11515       14.69116
C         -6.73170       19.27600       15.22272
C         -8.61394       21.49946       14.24061
H         -9.67314       17.28772       14.62558
H         -7.88911       17.78331       17.03148
H         -8.07587       20.18762       16.61039
H        -10.09575       20.26063       15.11459
H         -9.16585       19.45514       13.80174
H         -6.08826       18.85391       16.02357
H         -6.74133       18.58785       14.35358
H         -6.26222       20.23457       14.92680
H         -8.51697       22.16729       15.11974
H         -7.64113       21.45378       13.71293
H         -9.35608       21.93354       13.53848
N         -9.86804       18.14914       18.55370
C        -10.96257       18.41230       19.49200
C        -11.33662       19.89408       19.54645
O        -10.74054       20.69526       18.84386
C        -10.54011       17.95065       20.90668
O         -9.46763       18.72334       21.38720
H         -8.98579       17.79218       18.94027
H        -11.85007       17.81586       19.18717
H        -10.28028       16.86638       20.88892
H        -11.37855       18.04098       21.62705
H         -8.64257       18.18015       21.29531
N        -12.31187       20.32753       20.39749
C        -12.67670       21.73136       20.58383
C        -11.51338       22.54711       21.12612
O        -11.20719       23.58603       20.55786
C        -13.85487       21.84731       21.55916
H        -12.81744       19.62133       20.95404
H        -13.01600       22.16079       19.61416
H        -14.14671       22.91337       21.67967
H        -14.73059       21.29116       21.16272
H        -13.59118       21.43488       22.55653
N        -10.82062       22.13164       22.23006
C         -9.72671       22.89145       22.84571
C         -8.51948       23.12631       21.93563
O         -7.60342       23.81508       22.36490
C         -9.25777       22.18028       24.12279
H        -11.11075       21.24535       22.67143
H        -10.12775       23.88694       23.13852
H         -8.84301       21.17861       23.87725
H         -8.47480       22.77577       24.63998
H        -10.11038       22.05447       24.82352
N         -8.45464       22.63007       20.66957
C         -7.37078       22.89685       19.73647
C         -7.89097       23.82868       18.65683
O         -7.32394       24.89947       18.48998
C         -6.84902       21.56786       19.16437
C         -6.19342       20.71122       20.25823
C         -5.76981       19.38295       19.71108
O         -6.68787       18.54851       19.20233
O         -4.60135       19.04048       19.74083
H         -9.22180       22.05279       20.31439
H         -6.52000       23.41666       20.23288
H         -6.09650       21.76768       18.37005
H         -7.69955       21.01222       18.71484
H         -6.91045       20.52487       21.08599
H         -5.31196       21.25254       20.66844
N         -9.00190       23.51973       17.92903
C         -9.60508       24.42091       16.96661
H        -10.63322       24.67363       17.30265
H         -9.03507       25.36618       16.85248
H         -9.67322       23.92887       15.97777
H         -9.47626       22.62365       18.08713
Ca        -4.34512       15.57512       16.42996
O         -5.36382       12.99285       18.14824
H         -6.22012       12.57768       18.42130
H         -4.67561       12.31973       18.37849
O         -2.53871       16.82071       18.44813
H         -3.22732       16.69750       19.14816
H         -1.73961       16.35464       18.80027
O         -6.45550       15.57513       19.06561
H         -7.38117       15.74659       18.75959
H         -5.89692       16.18129       18.51801

Ca 1.0



