%chk=holoCaM.loop1.water2.frame437.chk
%nprocshared=20
%mem=10GB
%nosave
#b3lyp/svp scf=(tight,noincore,xqc) Test 
#IOP(5/87=12) Density=Current Pop=(MK,readradii) iop(6/33=2) iop(6/42=6)

holoCaM.loop1.water2.frame437 

   0  1 
C         92.59018      108.52210       55.74888
C         92.97114      109.73808       54.96371
O         93.59697      110.62994       55.51747
H         91.48817      108.39733       55.74204
H         93.06638      107.63108       55.28831
H         92.93968      108.60724       56.80044
N         92.60181      109.84870       53.65645
C         92.99307      110.96497       52.80713
C         91.79119      111.89870       52.69095
O         90.79938      111.55664       52.06385
C         93.51195      110.38290       51.46785
C         94.12047      111.25704       50.39259
O         94.48657      112.54553       50.55335
O         94.35272      110.72973       49.31699
H         92.00261      109.11254       53.25193
H         93.82558      111.49725       53.30241
H         92.65087      109.85744       51.00259
H         94.28413      109.61625       51.69989
N         91.79540      113.06178       53.40057
C         90.69772      114.01814       53.51479
C         90.36931      114.63256       52.16933
O         89.20947      114.62676       51.78232
C         91.11999      115.12124       54.52710
C         90.07534      116.20163       54.86369
C         88.85305      115.65841       55.62056
C         87.94193      116.80935       56.08026
N         86.78182      116.30632       56.81604
H         92.62974      113.25644       53.95776
H         89.80522      113.49990       53.92843
H         92.01877      115.63523       54.12651
H         91.41805      114.63749       55.48434
H         89.75760      116.73731       53.94363
H         90.58340      116.93617       55.52819
H         89.19631      115.10274       56.52104
H         88.28000      114.96717       54.96754
H         87.59391      117.38895       55.19703
H         88.51810      117.49505       56.74246
H         87.09251      115.78014       57.66510
H         86.19230      117.11518       57.11997
H         86.20954      115.68250       56.20238
N         91.35624      115.18255       51.40600
C         91.11933      115.87973       50.14380
C         91.63685      115.11487       48.92808
O         91.55186      115.64802       47.82970
C         91.68406      117.31647       50.23019
C         93.17866      117.43136       50.40812
O         93.96996      116.34548       50.47962
O         93.68411      118.53888       50.48952
H         92.32436      115.10417       51.74715
H         90.02656      115.99341       49.96911
H         91.19308      117.82871       51.08662
H         91.40581      117.86505       49.30426
N         92.08553      113.82949       49.02044
C         92.41222      113.02134       47.85390
C         93.71915      113.36053       47.16195
O         94.01324      112.69753       46.17722
H         92.07580      113.35450       49.93345
H         91.57457      113.08233       47.12479
H         92.48099      111.96050       48.16625
N         94.56088      114.34817       47.58759
C         95.80173      114.66112       46.87510
C         96.82983      113.52571       46.88354
O         97.77133      113.60880       46.10525
C         96.43363      115.98658       47.36924
C         96.79328      116.04625       48.83278
O         97.33247      117.04845       49.27194
O         96.49375      115.04282       49.67596
H         94.29207      114.91881       48.39770
H         95.52481      114.83147       45.81050
H         95.71947      116.81518       47.17427
H         97.35096      116.18319       46.77214
N         96.74868      112.46100       47.73491
C         97.70785      111.36086       47.74785
C         98.64312      111.40956       48.94468
O         99.47779      110.52754       49.06748
H         96.00229      112.44209       48.44018
H         98.35615      111.38502       46.84463
H         97.14929      110.40062       47.72502
N         98.61298      112.45782       49.81626
C         99.58305      112.69111       50.87606
C         98.87263      112.87395       52.20925
O         97.83876      113.52159       52.26190
C        100.38691      113.96096       50.49417
C        101.42425      114.37037       51.54770
O        101.02440      113.77116       49.25372
H         97.92214      113.19544       49.67515
H        100.30865      111.85175       50.95862
H         99.67861      114.81098       50.37960
H        101.66043      113.01359       49.35262
H        101.96720      115.27428       51.19891
H        100.92989      114.61932       52.50955
H        102.15701      113.55274       51.71407
N         99.45660      112.40862       53.35064
C         98.89855      112.58154       54.68748
C         99.70214      113.64236       55.42474
O        100.91912      113.56095       55.48509
C         98.89507      111.21740       55.43653
C         98.01050      110.16001       54.72107
C         98.47975      111.36190       56.91485
C         96.52300      110.51812       54.63012
H        100.37824      111.95293       53.27725
H         97.85332      112.94970       54.63779
H         99.93665      110.82650       55.44309
H         98.09693      109.19707       55.27007
H         98.38944      109.99170       53.69094
H         97.45837      111.76896       57.01353
H         98.51743      110.37521       57.42259
H         99.17440      112.03664       57.45704
H         96.09246      110.65878       55.64057
H         96.35662      111.43347       54.02792
H         95.97175      109.69074       54.13668
N         99.03682      114.65958       56.04416
C         99.66356      115.76734       56.75887
C         99.43136      115.61421       58.26087
O         98.89524      114.60427       58.68487
C         99.05769      117.09874       56.23359
C         99.32733      117.27696       54.72887
O         97.67524      117.11442       56.50808
H         98.00906      114.64594       56.02797
H        100.76352      115.77804       56.59746
H         99.53339      117.95579       56.75545
H         97.24799      117.82331       55.96117
H         98.92913      118.25733       54.38928
H        100.41897      117.26343       54.52870
H         98.83610      116.47494       54.13865
N         99.84218      116.58723       59.12743
C         99.62318      116.54116       60.57598
C         98.14178      116.53749       60.93100
O         97.74728      115.70801       61.73841
C        100.33188      117.71357       61.29270
C        101.85707      117.61098       61.15862
O         99.88209      118.94300       60.78451
H        100.33528      117.40063       58.73706
H        100.07666      115.60995       60.98697
H        100.08525      117.63484       62.37912
H        100.03344      119.62036       61.49398
H        102.34085      118.43450       61.72368
H        102.21178      116.64586       61.58154
H        102.17938      117.67357       60.09906
N         97.25446      117.42002       60.38070
C         95.81885      117.38866       60.68831
C         95.12782      116.09822       60.23869
O         93.95380      115.94221       60.54070
C         95.08445      118.58629       60.04478
C         95.47187      119.91725       60.70182
C         94.69362      121.08195       60.07752
C         94.96080      122.38842       60.83533
N         94.23540      123.50344       60.22798
H         97.61214      118.12661       59.71910
H         95.69116      117.45621       61.79198
H         93.98847      118.46719       60.19897
H         95.27764      118.60511       58.94870
H         96.56238      120.10453       60.60233
H         95.21832      119.85342       61.78342
H         93.60244      120.86910       60.12239
H         94.99158      121.19109       59.01165
H         96.05021      122.61227       60.83140
H         94.62965      122.27024       61.89199
H         94.57237      123.65780       59.25005
H         93.20797      123.30672       60.22064
H         94.40923      124.36945       60.78743
N         95.77934      115.13275       59.53106
C         95.16206      113.89120       59.08203
C         95.78687      112.67013       59.74812
O         95.27536      111.57612       59.54514
C         95.35681      113.77727       57.56716
C         94.78356      114.97235       56.80178
C         95.13010      114.83984       55.35754
O         95.75256      115.70853       54.76981
O         94.74761      113.73881       54.70960
H         96.74983      115.28482       59.26161
H         94.07818      113.88411       59.32940
H         94.89635      112.83448       57.19341
H         96.44660      113.73613       57.37401
H         95.19534      115.93118       57.18074
H         93.67834      114.98594       56.91633
N         96.89144      112.75965       60.53978
C         97.48468      111.61467       61.18962
H         98.38866      111.93272       61.75369
H         96.75996      111.17180       61.90411
H         97.78568      110.85976       60.43370
H         97.35310      113.65944       60.68598
Ca        94.77834      113.58447       52.49343
O         96.82645      117.65683       52.39493
H         96.77953      118.47177       52.95528
H         97.63904      117.78462       51.84463
O         93.80111      117.51272       53.73467
H         93.85488      117.55825       54.72252
H         94.30869      118.30221       53.42263

Ca 1.0



