%chk=holoCaM-CaMKII.loop1.water2.frame276.chk
%nprocshared=20
%mem=10GB
%nosave
#b3lyp/svp scf=(tight,noincore,xqc) Test 
#IOP(5/87=12) Density=Current Pop=(MK,readradii) iop(6/33=2) iop(6/42=6)

holoCaM-CaMKII.loop1.water2.frame276 

   0  1 
C         58.82631       27.22630       66.54248
C         59.70541       27.27761       65.33095
O         59.78011       26.28783       64.62208
H         57.78293       27.01653       66.22411
H         59.17034       26.42047       67.22057
H         58.83874       28.18929       67.09409
N         60.36908       28.41987       65.00398
C         61.15661       28.55600       63.78555
C         62.43457       27.71787       63.86497
O         63.40033       28.15151       64.47842
C         61.44809       30.05426       63.56158
C         62.07381       30.38274       62.24929
O         62.33105       29.51973       61.42824
O         62.31119       31.67035       61.96266
H         60.23824       29.24634       65.60861
H         60.52109       28.21604       62.93545
H         62.09390       30.44275       64.37914
H         60.48325       30.60743       63.59257
N         62.47186       26.46208       63.33129
C         63.61662       25.55878       63.47385
C         64.76809       25.86828       62.51965
O         65.81757       25.26100       62.68369
C         63.18508       24.08930       63.24116
C         62.12842       23.55889       64.22934
C         62.65182       23.50776       65.67619
C         61.69738       22.78648       66.64150
N         60.43168       23.49823       66.81946
H         61.60551       26.10250       62.91408
H         64.00755       25.64984       64.50879
H         64.07215       23.42200       63.31226
H         62.78282       23.99369       62.20976
H         61.87863       22.52275       63.91308
H         61.20266       24.16302       64.16389
H         62.85064       24.53014       66.06058
H         63.60772       22.94004       65.67781
H         62.20290       22.70917       67.62984
H         61.50368       21.75344       66.27687
H         59.85107       22.98093       67.51859
H         60.61418       24.46140       67.18222
H         59.89899       23.54565       65.92255
N         64.64918       26.75018       61.48629
C         65.73556       27.04159       60.54172
C         66.16710       28.50002       60.58888
O         67.09091       28.85465       59.86942
C         65.35602       26.57863       59.11234
C         64.09663       27.17204       58.53638
O         63.65558       26.73087       57.48746
O         63.39717       28.10505       59.20455
H         63.74487       27.21826       61.35486
H         66.64463       26.46077       60.81144
H         65.19899       25.47835       59.16488
H         66.19935       26.76187       58.41132
N         65.58958       29.39401       61.44060
C         66.03037       30.76940       61.57788
C         65.87417       31.55593       60.30081
O         66.83845       32.15091       59.84252
H         64.82483       29.09620       62.06032
H         67.08622       30.79218       61.92459
H         65.40617       31.26027       62.35690
N         64.66184       31.61969       59.69101
C         64.36693       32.44344       58.52492
C         63.27350       33.46032       58.85520
O         62.66843       34.00799       57.94411
C         64.03031       31.54814       57.30643
C         62.83639       30.63678       57.42497
O         62.08759       30.58816       58.53810
O         62.54736       29.91355       56.48586
H         63.89468       31.07173       60.09759
H         65.25898       33.02915       58.21296
H         64.91674       30.90946       57.10018
H         63.87234       32.20274       56.42226
N         63.00662       33.80077       60.15232
C         61.98076       34.74660       60.56553
C         60.55334       34.26321       60.36807
O         59.65668       35.00895       60.74137
H         63.59603       33.41718       60.90310
H         62.13505       35.71372       60.04031
H         62.10030       34.93200       61.65584
N         60.24511       33.06505       59.78842
C         58.87796       32.60924       59.54979
C         58.63423       31.20034       60.08363
O         59.56530       30.52352       60.50166
C         58.55906       32.67259       58.03523
C         58.55607       34.11525       57.50701
O         59.44819       31.87141       57.29630
H         61.00315       32.46541       59.45582
H         58.15959       33.27592       60.07722
H         57.53276       32.28415       57.86346
H         60.31281       32.35319       57.21715
H         58.29377       34.11745       56.42805
H         57.80073       34.71822       58.05464
H         59.55180       34.59112       57.63031
N         57.35863       30.72337       60.13322
C         56.95283       29.41838       60.65378
C         56.06828       28.72816       59.61980
O         55.15687       29.36399       59.10286
C         56.18344       29.62254       61.99506
C         57.13435       30.24572       63.05502
C         55.60366       28.28692       62.51327
C         56.43314       30.66202       64.34864
H         56.60147       31.36088       59.83650
H         57.83264       28.77295       60.88139
H         55.33691       30.32069       61.80859
H         57.59620       31.16854       62.64752
H         57.95287       29.52990       63.29362
H         54.89663       27.85150       61.77913
H         56.41549       27.55345       62.70700
H         55.01813       28.43029       63.44185
H         55.98526       29.79790       64.87688
H         57.17529       31.12382       65.03371
H         55.64397       31.41136       64.12612
N         56.21949       27.40108       59.34087
C         55.36932       26.66624       58.40300
C         54.42280       25.72932       59.14459
O         54.52276       25.60357       60.35720
C         56.24584       25.85874       57.40969
C         57.19309       26.75949       56.61947
O         57.00034       24.90874       58.11766
H         56.93671       26.87431       59.85594
H         54.72937       27.37540       57.83296
H         55.57430       25.33806       56.68923
H         57.28190       24.21159       57.46932
H         56.62176       27.51428       56.04114
H         57.89094       27.27033       57.31264
H         57.79118       26.14585       55.91176
N         53.45728       25.04621       58.46253
C         52.54413       24.08499       59.08614
C         53.30068       22.91941       59.68677
O         52.94605       22.49693       60.77786
C         51.47302       23.55198       58.10235
C         50.42205       24.62324       57.76551
O         52.05783       22.99518       56.94769
H         53.37504       25.22068       57.45005
H         51.98764       24.58257       59.91338
H         50.90183       22.74333       58.61095
H         52.15719       23.70941       56.26510
H         49.92024       24.95999       58.69958
H         50.88182       25.50366       57.27204
H         49.64607       24.19173       57.09850
N         54.36291       22.35722       59.04521
C         55.16302       21.29443       59.64472
C         55.75760       21.77600       60.95987
O         55.56336       21.12405       61.97663
C         56.25912       20.82886       58.65634
C         57.08384       19.65487       59.22141
C         58.08190       19.04721       58.21924
C         57.38788       18.34524       57.03687
N         58.36007       17.66313       56.18316
H         54.63099       22.72281       58.11820
H         54.50818       20.41480       59.83756
H         56.94028       21.66781       58.39144
H         55.73561       20.50206       57.73512
H         56.40289       18.84633       59.56561
H         57.65721       20.01982       60.10127
H         58.67384       18.28237       58.76845
H         58.78281       19.82738       57.85014
H         56.82724       19.08085       56.42298
H         56.66763       17.59290       57.42932
H         57.85331       17.19176       55.39888
H         59.03793       18.35214       55.78455
H         58.87419       16.93650       56.73275
N         56.47852       22.93072       61.00815
C         57.10753       23.43922       62.22829
C         56.09561       23.83407       63.30270
O         56.51216       24.07447       64.42737
C         58.00814       24.65491       61.90775
C         59.11066       24.28596       60.90091
C         59.98350       25.44148       60.52328
O         59.48653       26.53932       59.92077
O         61.18879       25.35352       60.68088
H         56.59143       23.44934       60.12819
H         57.74873       22.62706       62.63824
H         58.48500       25.02060       62.84026
H         57.37491       25.46930       61.50445
H         58.68174       23.90696       59.95595
H         59.73678       23.47910       61.34119
N         54.76416       23.94413       63.03186
C         53.75710       24.29073       64.01293
H         52.99486       23.48322       64.05013
H         54.18039       24.42116       65.02971
H         53.25722       25.23443       63.70853
H         54.43179       23.79601       62.07778
Ca        61.15634       27.88751       59.24406
O         59.69054       29.04295       56.80282
H         59.83346       28.33934       56.12155
H         58.83545       29.46876       56.54271
O         60.64424       25.63946       57.09852
H         59.79902       25.33064       57.51024
H         61.35165       25.26649       57.68198

Ca 1.0



