%chk=holoCaM-CaMKII.loop1.water2.frame48.chk
%nprocshared=20
%mem=10GB
%nosave
#b3lyp/svp scf=(tight,noincore,xqc) Test 
#IOP(5/87=12) Density=Current Pop=(MK,readradii) iop(6/33=2) iop(6/42=6)

holoCaM-CaMKII.loop1.water2.frame48 

   0  1 
C          9.13830       57.61916       10.60329
C          8.12739       58.05265       11.61719
O          8.36924       57.91684       12.80813
H         10.03670       57.19729       11.10029
H          8.69286       56.85396        9.93522
H          9.44566       58.49938        9.99802
N          6.96942       58.63085       11.20457
C          5.99272       59.16902       12.13523
C          5.33386       58.06566       12.95993
O          4.90616       57.07448       12.38542
C          4.97137       60.04620       11.38169
C          4.24154       60.89386       12.36891
O          3.02793       60.92078       12.40338
O          4.96157       61.59533       13.26040
H          6.81981       58.75867       10.19070
H          6.54996       59.85513       12.80605
H          4.28532       59.44637       10.74290
H          5.52846       60.75337       10.73007
N          5.19950       58.19113       14.31600
C          4.65982       57.14524       15.18799
C          3.24150       57.47780       15.62170
O          2.33727       56.75420       15.22485
C          5.59717       56.94999       16.40776
C          6.94001       56.29185       16.04292
C          6.76180       54.77872       15.80900
C          8.05801       54.04984       15.43115
N          8.53595       54.43825       14.10362
H          5.47826       59.08200       14.75145
H          4.57162       56.19191       14.62730
H          5.10985       56.33503       17.19572
H          5.79670       57.94990       16.85254
H          7.63878       56.41035       16.90061
H          7.38216       56.81373       15.16943
H          6.01022       54.57364       15.02172
H          6.38900       54.33564       16.75964
H          7.83797       52.95884       15.41986
H          8.84659       54.23082       16.19490
H          9.35130       53.83644       13.84751
H          7.78024       54.29409       13.39422
H          8.84397       55.43553       14.09776
N          2.95022       58.53874       16.42783
C          1.56958       58.88724       16.79682
C          0.72907       59.35465       15.59041
O         -0.45700       59.58762       15.77750
C          1.53491       59.94402       17.94240
C          2.21348       61.23100       17.57017
O          2.78842       61.29069       16.36619
O          2.29317       62.16346       18.35298
H          3.73520       59.08856       16.80594
H          1.08652       57.97440       17.21163
H          2.04979       59.52187       18.83285
H          0.47913       60.15051       18.22184
N          1.24636       59.47560       14.32703
C          0.43173       59.77474       13.15502
C         -0.03239       61.21733       13.02153
O         -0.77887       61.47377       12.08698
H          2.23335       59.25257       14.15173
H         -0.44507       59.09172       13.15239
H          1.00979       59.53565       12.23685
N          0.33454       62.21193       13.88519
C         -0.23899       63.55911       13.80082
C          0.14759       64.35961       12.54779
O         -0.46957       65.39333       12.33159
C          0.04048       64.36561       15.09250
C          1.47562       64.75886       15.31409
O          2.33409       64.50304       14.49064
O          1.81421       65.42717       16.43210
H          0.95433       61.98406       14.67389
H         -1.34334       63.41824       13.77257
H         -0.29373       63.75613       15.96030
H         -0.56311       65.29797       15.07880
N          1.13688       63.96858       11.68666
C          1.43988       64.66675       10.43746
C          2.85700       65.21517       10.33807
O          3.21750       65.64763        9.25212
H          1.67867       63.11843       11.89048
H          0.74108       65.51127       10.24945
H          1.29457       63.93569        9.61384
N          3.69754       65.28859       11.41062
C          5.06458       65.82704       11.34823
C          6.05027       64.84929       11.96501
O          5.61037       63.84263       12.48352
C          5.13377       67.19092       12.07506
C          4.34611       68.27351       11.32571
O          4.70121       67.08489       13.40970
H          3.34485       64.98480       12.32608
H          5.37704       65.97931       10.29156
H          6.18802       67.53987       12.08949
H          3.71014       67.01596       13.41211
H          4.44547       69.24289       11.85737
H          4.75487       68.39197       10.29912
H          3.26973       68.01127       11.25455
N          7.40207       65.05989       11.93369
C          8.36452       64.11244       12.50535
C          9.24505       64.84225       13.51431
O          9.97499       65.73952       13.11295
C          9.24015       63.47301       11.38297
C          8.36960       62.93897       10.21383
C         10.11571       62.34616       11.97424
C          9.19455       62.48260        9.00710
H          7.76565       65.89868       11.45614
H          7.82256       63.28638       13.01595
H          9.89564       64.26889       10.96446
H          7.72235       63.75904        9.83697
H          7.71361       62.11166       10.56086
H         10.74563       62.72429       12.80332
H          9.47590       61.52440       12.36560
H         10.80641       61.92550       11.21748
H          9.83796       63.31574        8.64889
H          9.82810       61.60652        9.24711
H          8.51201       62.19116        8.18139
N          9.21801       64.53272       14.84338
C         10.04729       65.23876       15.82684
C         11.51209       64.81958       15.72310
O         11.83869       63.93444       14.94854
C          9.53849       64.99460       17.27575
C          8.10722       65.49008       17.47405
O          9.60590       63.63161       17.59155
H          8.55439       63.81184       15.16466
H          9.96915       66.33313       15.63936
H         10.18275       65.57415       17.97578
H          9.62506       63.56395       18.58219
H          7.41088       64.91452       16.83674
H          7.80632       65.34800       18.53382
H          8.03313       66.56984       17.22683
N         12.44853       65.40672       16.52245
C         13.84218       64.96983       16.60535
C         13.89226       63.53378       17.10850
O         14.52263       62.69277       16.48376
C         14.62727       65.89749       17.57553
C         16.10170       65.50094       17.71267
O         14.57429       67.22104       17.10270
H         12.14473       66.17924       17.13319
H         14.32326       65.04407       15.60378
H         14.17871       65.83101       18.59703
H         13.94924       67.72471       17.68723
H         16.61240       65.55574       16.72803
H         16.61045       66.19514       18.41579
H         16.20372       64.47247       18.11829
N         13.22468       63.20136       18.24818
C         13.23119       61.88058       18.87194
C         12.79821       60.79340       17.90319
O         13.52548       59.82239       17.74739
C         12.32869       61.92462       20.12540
C         12.35250       60.62259       20.94054
C         11.53180       60.70958       22.24153
C         12.09404       61.73727       23.24325
N         11.36192       61.69697       24.50814
H         12.67585       63.94726       18.70442
H         14.26683       61.65530       19.21318
H         11.28090       62.16281       19.83841
H         12.71493       62.75007       20.75674
H         13.40166       60.36064       21.19728
H         11.93095       59.80350       20.31839
H         11.56221       59.70656       22.71958
H         10.47133       60.95005       22.00773
H         12.02141       62.76482       22.82901
H         13.16568       61.51149       23.43972
H         10.35327       61.92240       24.34914
H         11.45073       60.75067       24.94437
H         11.76929       62.40664       25.15974
N         11.64229       60.90788       17.19433
C         11.18258       59.91117       16.22948
C         12.25090       59.64809       15.18445
O         12.67668       58.50829       15.05344
C          9.87141       60.37118       15.55442
C          8.69218       60.38030       16.54571
C          7.40619       60.84625       15.92381
O          7.36820       61.24617       14.77189
O          6.27542       60.82076       16.65214
H         11.08870       61.76123       17.32872
H         10.98151       58.95115       16.75686
H          9.61248       59.66163       14.73721
H         10.01487       61.38096       15.10798
H          8.90531       61.03706       17.41334
H          8.54075       59.34435       16.91830
N         12.75686       60.65517       14.42582
C         13.81180       60.43360       13.46182
H         14.70940       60.02377       13.97389
H         13.47205       59.71998       12.68203
H         14.09000       61.39306       12.97704
H         12.40126       61.60993       14.55124
Ca         4.06195       62.51583       15.06648
O          5.62675       63.18119       18.01705
H          5.05306       63.59233       18.71017
H          6.38680       62.79239       18.51930
O          5.10909       65.32067       15.78251
H          5.39848       64.97995       14.89979
H          5.57730       66.18778       15.87635

Ca 1.0



