%chk=holoCaM.loop2.water4.frame400.chk
%nprocshared=20
%mem=10GB
%nosave
#b3lyp/svp scf=(tight,noincore,xqc) Test 
#IOP(5/87=12) Density=Current Pop=(MK,readradii) iop(6/33=2) iop(6/42=6)

holoCaM.loop2.water4.frame400 

   -2  1 
C        108.67897       80.82374       77.22178
C        109.61936       81.95075       76.92296
O        109.16486       83.01048       76.51322
H        107.62959       81.12446       77.01120
H        108.93493       79.94060       76.60277
H        108.75679       80.55768       78.29757
N        110.95659       81.80862       77.14748
C        111.87648       82.92220       76.98178
C        112.00304       83.33186       75.51262
O        112.44079       82.53036       74.69890
C        113.28180       82.59616       77.54389
C        114.11410       83.85224       77.62963
O        115.31308       83.79001       77.83576
O        113.52255       85.04941       77.44337
H        111.30506       80.91299       77.52354
H        111.46338       83.75440       77.59408
H        113.77042       81.84999       76.87827
H        113.22321       82.15869       78.56304
N        111.64150       84.58373       75.11644
C        111.74100       85.07491       73.74334
C        113.17530       85.30722       73.25371
O        113.32427       85.61516       72.07913
C        110.96772       86.39605       73.61979
H        111.22102       85.19359       75.82374
H        111.24595       84.33271       73.07876
H        110.97054       86.76033       72.57062
H        109.91131       86.24676       73.93045
H        111.42306       87.17370       74.27161
N        114.26784       85.20884       74.06979
C        115.64504       85.43141       73.61695
C        116.49313       84.16859       73.76113
O        117.65620       84.20590       73.38205
C        116.29247       86.56736       74.43598
C        115.57567       87.88708       74.29836
O        115.57422       88.47848       73.23090
O        114.94007       88.42324       75.35888
H        114.13174       84.97275       75.05830
H        115.66631       85.71593       72.54234
H        117.34849       86.72478       74.12641
H        116.31619       86.25258       75.49798
N        115.98920       83.01075       74.28209
C        116.74599       81.77489       74.39602
C        117.85717       81.78056       75.43191
O        118.46788       80.73315       75.59415
H        115.00386       82.96193       74.56798
H        117.15450       81.49984       73.39930
H        116.04183       80.97134       74.70409
N        118.19044       82.87713       76.17718
C        119.25732       82.83836       77.17801
C        118.84274       82.06931       78.44013
O        119.67645       81.90518       79.32032
C        119.67372       84.27954       77.54740
C        120.88598       84.32732       78.44691
N        120.81122       84.87759       79.68127
O        121.94613       83.86169       78.05553
H        117.70754       83.77074       76.01256
H        120.14521       82.35344       76.71205
H        118.81490       84.78366       78.03048
H        119.92455       84.83815       76.61911
H        119.92685       85.27200       80.03247
H        121.64074       84.90384       80.29258
N        117.57924       81.58143       78.61706
C        117.15707       80.89838       79.82899
C        117.14599       81.83509       81.01917
O        117.80937       81.55181       82.00360
H        116.87282       81.68762       77.87735
H        117.81176       80.01788       80.01090
H        116.11835       80.52681       79.69053
N        116.35793       82.94893       80.99278
C        116.19451       83.92717       82.07802
C        115.06481       84.87187       81.67900
O        115.14906       85.45561       80.60683
C        117.48210       84.75714       82.35907
C        117.27009       85.74107       83.52642
O        118.58868       83.94081       82.64148
H        115.78905       83.07141       80.14339
H        115.90832       83.38323       83.00533
H        117.73261       85.34865       81.45339
H        118.42138       83.49284       83.51216
H        118.19740       86.32400       83.70496
H        116.44774       86.45466       83.31149
H        117.01767       85.18529       84.45642
N        113.95721       85.02652       82.46262
C        112.75986       85.73535       82.00458
C        112.39618       86.95944       82.85255
O        113.04223       87.24506       83.85000
C        111.58742       84.71645       81.86019
C        111.22236       84.02231       83.19681
C        111.92316       83.70443       80.74966
C        110.00180       83.10927       83.08465
H        113.93503       84.55644       83.37838
H        112.93543       86.15639       80.99104
H        110.69737       85.26228       81.51860
H        110.98763       84.80505       83.94969
H        112.06697       83.41004       83.57375
H        112.79657       83.07717       81.02522
H        111.06201       83.04578       80.52041
H        112.15784       84.25257       79.81457
H        109.75317       82.69672       84.08469
H        109.13597       83.68455       82.70454
H        110.19645       82.25146       82.40950
N        111.37082       87.76027       82.42870
C        110.91106       89.01464       83.02375
C        109.44010       88.88166       83.41606
O        108.90647       87.78978       83.32995
C        111.04689       90.14128       81.96790
C        112.46376       90.36965       81.53571
O        112.76773       90.26924       80.35834
O        113.39694       90.73035       82.43680
H        110.87075       87.47666       81.58241
H        111.50522       89.28417       83.92408
H        110.68848       91.10659       82.37726
H        110.42191       89.89273       81.07953
N        108.71045       89.95518       83.84074
C        107.28773       89.88148       84.17472
C        106.40588       89.42637       82.99584
O        105.69031       88.45343       83.19142
C        106.79022       91.23238       84.73836
C        105.33919       91.16650       85.15829
C        104.93828       90.31885       86.20659
C        104.37256       91.94838       84.50185
C        103.59514       90.25466       86.58851
C        103.02947       91.87787       84.88512
C        102.64121       91.03233       85.92765
H        109.18342       90.86515       83.94025
H        107.17715       89.13807       84.99582
H        106.93461       92.02678       83.98401
H        107.40149       91.52030       85.62082
H        105.66416       89.71017       86.73052
H        104.65501       92.60584       83.68903
H        103.29403       89.60105       87.39703
H        102.28886       92.47827       84.37289
H        101.60146       90.97967       86.22362
N        106.36052       90.04335       81.76407
C        105.44760       89.64771       80.68605
C        105.79369       88.31536       80.02737
O        105.10616       87.93477       79.09004
C        105.54649       90.81165       79.69482
C        106.99111       91.22654       79.84669
C        107.16387       91.18196       81.36267
H        104.39615       89.58882       81.04494
H        105.20631       90.59019       78.65993
H        104.93158       91.65507       80.08508
H        107.61916       90.42726       79.39140
H        107.26049       92.19866       79.38258
H        108.24169       91.06910       81.58605
H        106.74720       92.10001       81.82442
N        106.80542       87.53583       80.48594
C        107.14998       86.22643       79.95647
C        106.69545       85.17405       80.95971
O        106.01510       84.23884       80.56174
C        108.66256       86.19390       79.67010
C        109.04102       87.20686       78.57212
C        110.52085       87.27469       78.31906
O        111.36879       87.66094       79.28582
O        110.95977       87.04479       77.20851
H        107.36345       87.86173       81.28067
H        106.62258       86.00948       79.00027
H        108.97312       85.17416       79.35162
H        109.18165       86.45646       80.60473
H        108.71180       88.22542       78.86273
H        108.51913       86.92278       77.63152
N        106.94221       85.31109       82.29241
C        106.40709       84.40851       83.28836
H        105.29834       84.38323       83.21895
H        106.81323       83.38783       83.14513
H        106.67962       84.76821       84.30520
H        107.47700       86.11279       82.63046
Ca       114.54327       86.99125       77.04175
O        114.96714       88.26770       80.38996
H        115.71179       88.62526       80.93449
H        114.21739       88.18447       81.02842
O        112.56059       89.51711       76.80287
H        111.67026       89.87513       76.56040
H        112.74836       89.90058       77.69551
O        117.10456       86.80964       78.52356
H        116.79959       85.96102       78.11575
H        117.64610       86.52839       79.30208
O        115.86640       89.84206       78.00176
H        115.34244       90.29687       77.29609
H        115.66630       90.35516       78.82428

Ca 1.0



