%chk=holoCaM-CaMKII.loop2.water2.frame31.chk
%nprocshared=20
%mem=10GB
%nosave
#b3lyp/svp scf=(tight,noincore,xqc) Test 
#IOP(5/87=12) Density=Current Pop=(MK,readradii) iop(6/33=2) iop(6/42=6)

holoCaM-CaMKII.loop2.water2.frame31 

   -2  1 
C         36.19223       61.02776       32.05129
C         36.49107       59.79140       31.25387
O         35.74777       58.82789       31.33103
H         35.26815       60.90327       32.65405
H         37.04255       61.26382       32.72312
H         36.03975       61.87975       31.35221
N         37.56501       59.77757       30.42408
C         37.85960       58.70243       29.48269
C         38.20804       57.38010       30.16581
O         39.08757       57.37443       31.01596
C         39.04958       59.13091       28.59733
C         39.20596       58.26368       27.38697
O         40.14774       58.44068       26.63260
O         38.26915       57.34908       27.07952
H         38.15642       60.62380       30.40598
H         36.97170       58.58559       28.82384
H         39.98153       59.12088       29.20418
H         38.89259       60.16255       28.21688
N         37.61333       56.20871       29.77829
C         37.96537       54.89909       30.32582
C         38.54381       53.93026       29.28599
O         39.01227       52.88000       29.70462
C         36.71864       54.26650       30.95674
H         36.89289       56.24470       29.05049
H         38.73607       55.01847       31.11741
H         36.96270       53.28564       31.41897
H         36.30313       54.93144       31.74247
H         35.93699       54.10428       30.18112
N         38.49378       54.15565       27.93510
C         38.91290       53.15620       26.94516
C         39.72459       53.71695       25.76541
O         40.12839       52.92299       24.92633
C         37.66706       52.37429       26.47651
C         36.55251       53.25260       25.97981
O         35.36531       53.25033       26.61560
O         36.70987       53.96973       25.00970
H         37.99601       54.98273       27.59022
H         39.57914       52.40265       27.42160
H         37.27830       51.80645       27.35022
H         37.94697       51.63274       25.69730
N         40.04448       55.03775       25.64094
C         40.90304       55.57458       24.58814
C         40.36943       55.50555       23.16244
O         41.11468       55.89302       22.27350
H         39.75162       55.68864       26.37091
H         41.87366       55.03344       24.62523
H         41.11098       56.64473       24.80365
N         39.13436       55.02122       22.84083
C         38.69947       54.84564       21.45100
C         38.54905       56.14104       20.64611
O         38.39270       56.03943       19.43631
C         37.41027       53.99260       21.37182
C         36.18312       54.58541       22.02332
N         35.01554       53.90488       21.97936
O         36.23075       55.66258       22.59617
H         38.52460       54.69039       23.59441
H         39.49170       54.24725       20.94773
H         37.60830       53.01161       21.85605
H         37.17474       53.80123       20.30258
H         34.95610       52.99177       21.50655
H         34.16690       54.28768       22.41472
N         38.57286       57.37798       21.22118
C         38.50663       58.62593       20.46917
C         37.24161       59.42960       20.72059
O         37.15877       60.53722       20.21605
H         38.65504       57.45089       22.23957
H         38.56424       58.44965       19.37305
H         39.38941       59.23782       20.75283
N         36.19302       58.91685       21.42741
C         34.91950       59.61231       21.62165
C         34.56121       59.66925       23.10010
O         35.28511       59.14209       23.92558
C         33.80798       58.84968       20.84307
C         34.01062       58.95040       19.33132
O         33.77983       57.49267       21.20738
H         36.26327       57.96419       21.79717
H         34.96239       60.65702       21.24510
H         32.80806       59.30266       21.02723
H         33.35605       57.44132       22.10245
H         33.98244       60.01568       19.01577
H         34.97905       58.50393       19.02548
H         33.19024       58.41273       18.80879
N         33.38029       60.24395       23.47825
C         32.83600       60.14430       24.82454
C         31.68342       59.16560       24.73691
O         30.76183       59.40718       23.97193
C         32.35476       61.53246       25.35542
C         33.53741       62.52935       25.43658
C         31.67078       61.37215       26.73260
C         33.12799       63.93564       25.89048
H         32.77957       60.66728       22.75836
H         33.59053       59.74482       25.53349
H         31.59974       61.94088       24.64656
H         33.99197       62.62844       24.42789
H         34.31211       62.14353       26.13245
H         30.80304       60.68772       26.66278
H         32.38481       60.97332       27.48368
H         31.25457       62.33088       27.09896
H         34.01349       64.60442       25.86948
H         32.35086       64.35156       25.21479
H         32.74710       63.93535       26.93210
N         31.65951       58.04922       25.52250
C         30.52036       57.14212       25.54091
C         29.60481       57.52887       26.68507
O         29.94987       58.40381       27.45979
C         30.96658       55.66512       25.57741
C         31.66172       55.26989       24.29544
O         31.07903       54.55684       23.49478
O         32.92380       55.65745       24.01986
H         32.40179       57.91055       26.21862
H         29.90438       57.28780       24.62689
H         30.04826       55.04576       25.66381
H         31.60321       55.43919       26.46163
N         28.35774       56.98585       26.78329
C         27.37480       57.48446       27.73881
C         27.84439       57.34120       29.18246
O         27.82493       58.35573       29.87007
C         25.98624       56.84634       27.50857
C         24.94889       57.46603       28.41413
C         24.33626       56.69927       29.41885
C         24.59202       58.81919       28.26825
C         23.38927       57.27905       30.26792
C         23.64013       59.39268       29.11539
C         23.04090       58.62392       30.11610
H         28.07399       56.26462       26.10529
H         27.24078       58.56979       27.52913
H         26.02479       55.75761       27.66873
H         25.66848       56.99734       26.45383
H         24.60005       55.65762       29.55316
H         25.04628       59.42961       27.49759
H         22.92704       56.68532       31.04535
H         23.36853       60.43375       28.99654
H         22.30693       59.07048       30.77387
N         28.29652       56.16802       29.73224
C         28.77670       56.03799       31.10429
C         29.72220       57.14776       31.52627
O         29.53672       57.72636       32.58588
C         29.52111       54.69542       31.09551
C         28.68882       53.89443       30.12795
C         28.44588       54.91003       29.01767
H         27.89874       55.99125       31.78802
H         30.52203       54.81079       30.61890
H         29.66086       54.24067       32.09892
H         29.13507       52.93680       29.78549
H         27.71619       53.67830       30.62783
H         29.31659       54.99252       28.33148
H         27.55206       54.57940       28.46619
N         30.75108       57.50280       30.70963
C         31.73016       58.53573       31.03371
C         31.04512       59.87689       31.22771
O         31.15115       60.44764       32.30468
C         32.76750       58.66199       29.89993
C         33.55929       57.36539       29.63670
C         34.34060       57.46050       28.36096
O         34.85288       56.34236       27.83275
O         34.35942       58.48875       27.70373
H         30.82075       57.01205       29.80773
H         32.26472       58.25143       31.96773
H         33.48163       59.48499       30.12130
H         32.21958       58.92287       28.96913
H         32.86155       56.52153       29.47880
H         34.20916       57.08990       30.49119
N         30.32807       60.44487       30.21870
C         29.67494       61.72662       30.35107
H         28.91882       61.68484       31.16252
H         30.42621       62.51323       30.57475
H         29.16343       61.98691       29.39914
H         30.24138       59.95762       29.31870
Ca        34.36729       56.13783       25.66544
O         37.95977       58.29328       24.43723
H         38.10153       57.31488       24.49884
H         38.86296       58.66950       24.28520
O         36.55036       59.95605       26.41346
H         37.32185       60.52673       26.17180
H         35.96405       60.54347       26.95153

Ca 1.0



