%chk=holoCaM.loop1.water2.frame86.chk
%nprocshared=20
%mem=10GB
%nosave
#b3lyp/svp scf=(tight,noincore,xqc) Test 
#IOP(5/87=12) Density=Current Pop=(MK,readradii) iop(6/33=2) iop(6/42=6)

holoCaM.loop1.water2.frame86 

   0  1 
C        -12.48295        9.72551       83.52051
C        -13.65015       10.35460       82.83212
O        -14.75827       10.28000       83.34593
H        -11.72930       10.50890       83.74915
H        -12.80385        9.25235       84.47281
H        -12.03193        8.95714       82.86111
N        -13.46647       11.04070       81.67121
C        -14.55950       11.74984       81.03200
C        -15.54812       10.75450       80.42907
O        -15.18808       10.07018       79.48045
C        -14.00526       12.72095       79.96919
C        -15.03265       13.71382       79.54758
O        -14.74990       14.57485       78.73154
O        -16.25185       13.69900       80.10896
H        -12.51037       11.12461       81.29046
H        -15.03764       12.36804       81.82687
H        -13.61331       12.16244       79.09041
H        -13.17111       13.31013       80.40881
N        -16.78389       10.56315       80.97813
C        -17.68421        9.50819       80.51916
C        -18.24750        9.72957       79.12635
O        -18.35188        8.75600       78.39340
C        -18.79544        9.16435       81.53480
C        -19.96993       10.15357       81.67669
C        -20.93187        9.71826       82.80298
C        -21.68777        8.40968       82.49488
N        -22.44048        7.95081       83.66108
H        -17.02760       11.08904       81.82732
H        -17.08046        8.57150       80.49993
H        -18.31289        9.02118       82.52772
H        -19.20881        8.18932       81.21333
H        -20.52539       10.26009       80.72015
H        -19.57279       11.14129       81.94570
H        -21.68459       10.51957       82.97572
H        -20.34141        9.60371       83.73819
H        -20.99137        7.59565       82.21637
H        -22.37805        8.57999       81.63843
H        -21.77524        7.72375       84.43686
H        -23.11824        8.68041       83.97708
H        -22.96105        7.07926       83.40903
N        -18.65187       10.96278       78.69665
C        -19.26277       11.18338       77.38253
C        -18.35208       11.94686       76.42412
O        -18.74480       12.13322       75.28053
C        -20.66181       11.82795       77.53717
C        -20.68671       13.22445       78.09918
O        -19.65832       13.81708       78.37057
O        -21.87018       13.83793       78.28884
H        -18.51738       11.77034       79.32231
H        -19.43884       10.20507       76.88483
H        -21.27209       11.17637       78.19956
H        -21.15762       11.86117       76.54306
N        -17.09906       12.35029       76.78411
C        -16.14517       12.92273       75.84718
C        -16.57534       14.25407       75.27591
O        -16.66417       14.37288       74.06228
H        -16.76115       12.17894       77.74097
H        -15.96600       12.19430       75.02505
H        -15.17662       13.07572       76.37028
N        -16.81404       15.31462       76.09617
C        -17.12145       16.66404       75.61982
C        -16.06771       17.67293       76.09886
O        -16.26674       18.86354       75.90482
C        -18.58170       17.04426       75.99144
C        -18.86689       17.18651       77.45592
O        -20.01274       17.31335       77.85502
O        -17.85989       17.13831       78.32791
H        -16.74938       15.15896       77.11018
H        -17.10184       16.69603       74.50904
H        -19.23487       16.23883       75.58909
H        -18.86654       17.99659       75.49687
N        -14.88952       17.26353       76.66742
C        -13.79915       18.16658       77.01220
C        -13.86285       18.72558       78.41976
O        -12.93392       19.43540       78.78290
H        -14.67791       16.25833       76.72427
H        -13.71424       18.97854       76.25718
H        -12.85030       17.58874       76.96170
N        -14.89763       18.47178       79.27128
C        -14.95280       18.98218       80.64123
C        -15.40649       17.91148       81.62742
O        -15.79410       16.82188       81.22586
C        -15.87887       20.22570       80.72346
C        -15.27518       21.45039       80.02462
O        -17.16157       19.94952       80.21971
H        -15.69264       17.92026       78.93113
H        -13.93637       19.29156       80.97320
H        -15.98978       20.52483       81.78730
H        -17.09298       19.86320       79.23268
H        -14.29356       21.69945       80.48284
H        -15.13272       21.26837       78.93981
H        -15.95007       22.32276       80.15543
N        -15.35491       18.17435       82.96408
C        -15.78936       17.26575       84.01881
C        -16.85522       17.97248       84.85939
O        -16.61812       19.06087       85.36541
C        -14.54286       16.76057       84.81374
C        -13.76554       15.76606       83.89476
C        -14.93498       16.07941       86.13820
C        -12.50313       15.15170       84.49841
H        -14.96043       19.07961       83.26604
H        -16.26190       16.35737       83.59213
H        -13.90057       17.62891       85.08023
H        -13.46688       16.28677       82.96056
H        -14.43773       14.92243       83.61431
H        -15.49139       16.78161       86.79271
H        -15.55069       15.18133       85.95856
H        -14.03263       15.78130       86.70956
H        -12.73923       14.53001       85.38609
H        -12.03708       14.47764       83.74668
H        -11.77643       15.94321       84.77052
N        -18.06006       17.36443       85.05508
C        -19.19078       17.90348       85.80722
C        -19.22345       17.30885       87.20933
O        -18.34193       16.54025       87.56067
C        -20.51846       17.55220       85.06582
C        -20.67585       18.26711       83.72401
O        -20.63150       16.15837       84.91539
H        -18.16905       16.41580       84.68901
H        -19.10311       19.00588       85.92327
H        -21.39516       17.88523       85.65510
H        -20.29144       15.88388       84.02533
H        -20.68255       19.36629       83.86786
H        -19.84763       17.98738       83.05928
H        -21.63460       17.95982       83.24988
N        -20.23915       17.62797       88.06389
C        -20.40374       17.06654       89.40587
C        -20.47261       15.54851       89.35370
O        -19.73544       14.89809       90.07955
C        -21.67965       17.62751       90.09062
C        -21.56443       19.13214       90.36392
O        -22.81231       17.37606       89.29695
H        -20.95265       18.29010       87.72951
H        -19.53234       17.34973       90.03875
H        -21.78671       17.11084       91.07344
H        -23.60781       17.47965       89.88121
H        -20.68739       19.33456       91.01397
H        -21.45819       19.71221       89.42453
H        -22.47707       19.48622       90.88821
N        -21.32737       14.92163       88.50012
C        -21.41391       13.46932       88.35158
C        -20.05275       12.87175       87.98382
O        -19.60480       11.96554       88.67260
C        -22.55009       13.09302       87.34617
C        -22.31337       13.58783       85.91136
C        -23.53655       13.51209       84.99288
C        -23.18784       14.13041       83.62359
N        -24.35143       14.18420       82.74203
H        -21.93384       15.51704       87.92057
H        -21.72748       13.03621       89.32813
H        -23.48411       13.55837       87.73139
H        -22.70445       11.99217       87.32591
H        -21.48931       13.00483       85.46061
H        -22.05004       14.65112       85.96154
H        -24.36260       14.09996       85.44993
H        -23.86650       12.45881       84.86739
H        -22.37940       13.53719       83.13991
H        -22.81465       15.16906       83.76798
H        -24.06537       14.61024       81.83012
H        -24.72109       13.22229       82.56983
H        -25.09440       14.78338       83.17033
N        -19.33150       13.34306       86.92413
C        -18.05424       12.76582       86.49128
C        -16.91177       13.02927       87.47225
O        -15.84403       12.46190       87.28366
C        -17.64159       13.34179       85.11347
C        -18.68278       13.07072       84.01788
C        -18.34639       13.75638       82.72385
O        -18.22206       15.09186       82.66773
O        -18.25572       13.11711       81.69561
H        -19.72523       14.12795       86.39014
H        -18.19161       11.66674       86.38344
H        -16.66750       12.91017       84.79093
H        -17.51630       14.43076       85.23079
H        -19.66779       13.46413       84.31008
H        -18.76953       11.97317       83.87989
N        -17.02988       13.91264       88.50106
C        -15.93642       14.22518       89.39577
H        -15.07303       14.61975       88.81901
H        -16.25439       15.00620       90.12068
H        -15.62910       13.31924       89.95727
H        -17.90817       14.41455       88.64102
Ca       -17.63698       15.28894       79.49687
O        -18.84110       17.60378       80.85737
H        -19.56364       18.21786       80.57307
H        -18.28774       18.13559       81.48159
O        -21.02689       15.51102       81.36357
H        -21.72706       16.15231       81.08369
H        -20.62009       15.20169       80.51639

Ca 1.0



