%chk=holoCaM-CaMKII.loop1.water2.frame479.chk
%nprocshared=20
%mem=10GB
%nosave
#b3lyp/svp scf=(tight,noincore,xqc) Test 
#IOP(5/87=12) Density=Current Pop=(MK,readradii) iop(6/33=2) iop(6/42=6)

holoCaM-CaMKII.loop1.water2.frame479 

   0  1 
C         83.34501       78.22897       84.28047
C         83.84330       78.57131       85.65422
O         84.08237       79.73923       85.92158
H         82.38201       78.75099       84.09850
H         84.08610       78.55018       83.52035
H         83.17548       77.13661       84.17012
N         83.99002       77.59811       86.59467
C         84.41486       77.86907       87.96397
C         85.87686       78.30520       87.97003
O         86.74951       77.47804       87.74161
C         84.18757       76.58578       88.79015
C         84.47797       76.62028       90.25780
O         84.38397       75.57576       90.86940
O         84.79534       77.73583       90.93517
H         83.73654       76.63207       86.33226
H         83.75944       78.66979       88.36968
H         84.82515       75.78550       88.35339
H         83.12590       76.27386       88.67943
N         86.20680       79.61715       88.13765
C         87.57867       80.10877       88.05638
C         88.33107       79.82486       89.34327
O         89.32662       79.11512       89.29344
C         87.60952       81.62190       87.72533
C         87.03319       81.97694       86.33411
C         87.86255       81.38502       85.17453
C         87.42289       81.87453       83.78375
N         86.07462       81.42956       83.42898
H         85.44191       80.29844       88.21975
H         88.10937       79.58776       87.23284
H         88.66050       81.98574       87.75821
H         87.03685       82.18068       88.49700
H         87.05694       83.08468       86.24054
H         85.97528       81.65150       86.26723
H         87.82163       80.27664       85.18172
H         88.92056       81.69830       85.31134
H         88.13861       81.46469       83.03582
H         87.48134       82.98428       83.73529
H         86.01802       80.38601       83.46838
H         85.36422       81.85269       84.06659
H         85.86508       81.73889       82.45205
N         87.93702       80.36995       90.53298
C         88.68934       80.17552       91.77502
C         88.69772       78.72735       92.28234
O         89.39675       78.46524       93.25143
C         88.21938       81.16295       92.87101
C         86.79596       81.00029       93.33571
O         86.32074       81.82885       94.28486
O         86.06642       80.13924       92.87081
H         87.11740       80.99592       90.53626
H         89.74670       80.45490       91.56368
H         88.33778       82.19864       92.48177
H         88.88618       81.06310       93.75514
N         87.99818       77.72870       91.66669
C         88.10501       76.32593       92.04265
C         87.52179       76.01576       93.40360
O         88.23495       75.51593       94.26114
H         87.41360       77.94268       90.84871
H         89.17240       76.01774       91.99142
H         87.54542       75.71516       91.30114
N         86.20438       76.25241       93.64595
C         85.50774       75.92387       94.88703
C         84.31573       74.98881       94.64383
O         83.50627       74.81607       95.54470
C         85.09712       77.22816       95.61058
C         84.16311       78.16020       94.88044
O         83.79520       79.30927       95.47664
O         83.73983       77.90754       93.76598
H         85.65991       76.69104       92.89828
H         86.18459       75.39860       95.59600
H         86.02584       77.79579       95.83494
H         84.62482       76.95980       96.58016
N         84.17713       74.29988       93.47327
C         83.08403       73.38091       93.18453
C         81.73151       74.03192       92.94183
O         80.80237       73.28912       92.65889
H         84.92775       74.35585       92.77490
H         83.00505       72.63009       93.99980
H         83.32915       72.83396       92.24703
N         81.52774       75.38128       93.01253
C         80.23450       76.01091       92.73814
C         80.35126       77.03916       91.62181
O         81.44924       77.36583       91.19917
C         79.65653       76.65912       94.02183
C         79.28335       75.61294       95.08085
O         80.54085       77.61295       94.55544
H         82.31051       75.99281       93.26341
H         79.50461       75.25069       92.38305
H         78.70964       77.18333       93.76710
H         81.27597       77.13408       95.01994
H         80.17442       75.03302       95.40045
H         78.84961       76.12040       95.96895
H         78.52452       74.91277       94.67148
N         79.21634       77.54552       91.05948
C         79.18917       78.51708       89.96922
C         78.28689       79.67077       90.37623
O         77.15160       79.43006       90.76350
C         78.69240       77.83037       88.65836
C         79.71596       76.73803       88.23836
C         78.50903       78.86687       87.52695
C         79.32442       75.94248       86.99231
H         78.30915       77.18208       91.39051
H         80.20669       78.91257       89.75146
H         77.70392       77.35543       88.84844
H         79.82489       76.00402       89.06405
H         80.70972       77.20584       88.05821
H         78.11577       78.39440       86.60511
H         77.75682       79.62921       87.81153
H         79.46872       79.37619       87.29466
H         80.09409       75.16441       86.80222
H         78.34392       75.44509       87.14413
H         79.28223       76.58692       86.09145
N         78.70907       80.95997       90.23603
C         77.86413       82.11458       90.52963
C         77.33174       82.69428       89.23404
O         77.69649       82.22741       88.16697
C         78.65960       83.18913       91.31733
C         79.19916       82.64360       92.63825
O         79.72785       83.64582       90.53129
H         79.63039       81.13121       89.81204
H         76.97925       81.80326       91.12704
H         77.98132       84.04313       91.54083
H         80.12899       84.42356       90.99941
H         78.37017       82.27881       93.27873
H         79.90808       81.82098       92.43226
H         79.74577       83.44342       93.18315
N         76.43343       83.71464       89.25732
C         75.91477       84.33785       88.04355
C         77.04896       84.98091       87.26313
O         77.22085       84.66151       86.09478
C         74.80926       85.37367       88.37979
C         73.55461       84.66040       88.91918
O         75.29347       86.31656       89.30694
H         76.11198       84.05768       90.17465
H         75.44533       83.56295       87.39470
H         74.51888       85.89664       87.44065
H         74.52216       86.82071       89.67465
H         72.74770       85.39919       89.11026
H         73.17647       83.93427       88.16782
H         73.77105       84.12042       89.86378
N         77.87172       85.88876       87.85755
C         78.95270       86.57923       87.15854
C         79.95764       85.63355       86.52398
O         80.49636       85.97686       85.48052
C         79.61441       87.64113       88.06856
C         80.28187       87.09829       89.35200
C         80.61691       88.26563       90.30042
C         81.16620       87.82327       91.66768
N         82.50908       87.25298       91.57428
H         77.69693       86.11442       88.84593
H         78.48487       87.14310       86.32064
H         78.79730       88.33441       88.36638
H         80.36076       88.22908       87.49033
H         81.18438       86.50670       89.08922
H         79.57835       86.43912       89.89568
H         79.66813       88.80985       90.50556
H         81.32334       88.97557       89.81889
H         80.47079       87.09424       92.14124
H         81.21209       88.72004       92.32576
H         82.83919       87.01261       92.53731
H         82.50598       86.38444       90.99512
H         83.16482       87.95774       91.16484
N         80.24719       84.42136       87.07013
C         81.15361       83.47680       86.42496
C         80.53507       82.95004       85.14336
O         81.12811       83.13285       84.08939
C         81.55333       82.35140       87.39576
C         82.37259       82.96762       88.54708
C         82.93264       81.93590       89.45497
O         84.14184       81.83982       89.58234
O         82.13816       81.09499       90.12752
H         79.81231       84.16713       87.96900
H         82.10201       83.99764       86.16003
H         82.19585       81.62075       86.85537
H         80.65929       81.80904       87.77538
H         81.76377       83.67268       89.13957
H         83.22800       83.53146       88.11500
N         79.32787       82.31962       85.15371
C         78.65482       81.85527       83.95637
H         77.68169       82.38243       83.85848
H         79.24424       82.04710       83.03515
H         78.46495       80.76494       84.03431
H         78.84269       82.18289       86.04771
Ca        83.39238       79.45386       90.91840
O         81.40586       80.19707       93.76678
H         80.56054       79.85108       93.38441
H         81.11807       80.84859       94.45480
O         83.38012       82.42436       93.05519
H         82.86284       82.66101       93.86560
H         84.14204       83.05626       93.05612

Ca 1.0



