%chk=holoCaM-CaMKII.loop2.water2.frame381.chk
%nprocshared=20
%mem=10GB
%nosave
#b3lyp/svp scf=(tight,noincore,xqc) Test 
#IOP(5/87=12) Density=Current Pop=(MK,readradii) iop(6/33=2) iop(6/42=6)

holoCaM-CaMKII.loop2.water2.frame381 

   -2  1 
C         42.64677       71.85017       75.97459
C         42.06446       72.46528       77.21797
O         42.53607       72.19131       78.31168
H         43.49830       71.17887       76.21291
H         41.86501       71.26785       75.44283
H         43.01104       72.65397       75.29769
N         41.03746       73.34791       77.10131
C         40.43442       74.06643       78.22067
C         39.66144       73.15651       79.16097
O         38.75135       72.47417       78.71197
C         39.49353       75.15432       77.66262
C         38.75055       75.96159       78.69677
O         39.37167       76.61224       79.70593
O         37.53614       76.04473       78.60859
H         40.71104       73.56317       76.14548
H         41.24501       74.57913       78.76567
H         38.74724       74.68040       76.98671
H         40.08714       75.85422       77.04715
N         39.92643       73.16932       80.50232
C         39.14996       72.43148       81.49342
C         38.46621       73.34806       82.51806
O         37.75572       72.81786       83.36108
C         40.08558       71.46311       82.22857
H         40.70433       73.74648       80.84588
H         38.35391       71.83854       80.99440
H         40.87888       72.02714       82.76814
H         39.52169       70.85428       82.96737
H         40.57190       70.77411       81.50632
N         38.66798       74.70272       82.55810
C         38.16540       75.56231       83.63664
C         37.45247       76.83920       83.16017
O         37.03206       77.61127       84.01122
C         39.34065       75.88098       84.58893
C         40.56195       76.40566       83.89040
O         40.50978       77.43276       83.24585
O         41.72335       75.72818       83.96209
H         39.30531       75.13368       81.87785
H         37.41739       75.02136       84.25659
H         39.63540       74.93676       85.09553
H         39.01484       76.59482       85.37587
N         37.23466       77.11715       81.84410
C         36.49534       78.28226       81.36040
C         37.14685       79.64708       81.56758
O         36.53622       80.62282       81.15318
H         37.52120       76.42591       81.14719
H         35.48842       78.28820       81.83141
H         36.34937       78.17022       80.26361
N         38.35176       79.82324       82.18475
C         38.94670       81.14580       82.41126
C         39.45967       81.84139       81.13836
O         39.97059       82.94708       81.25683
C         40.06079       81.07308       83.48638
C         41.28864       80.27716       83.12810
N         42.31603       80.21376       84.00320
O         41.36835       79.68681       82.06326
H         38.82868       79.00209       82.56630
H         38.16548       81.79575       82.86586
H         39.63037       80.64165       84.41683
H         40.38981       82.10913       83.71950
H         42.26854       80.69965       84.91037
H         43.16471       79.68493       83.77046
N         39.34673       81.28617       79.89480
C         39.79016       81.94629       78.66948
C         41.30049       81.97426       78.45352
O         41.71611       82.49882       77.43060
H         38.86302       80.38739       79.78593
H         39.37382       82.97775       78.63682
H         39.36662       81.39267       77.80418
N         42.17902       81.43562       79.34723
C         43.63439       81.44817       79.19848
C         44.22287       80.04621       79.33532
O         43.82507       79.31353       80.22968
C         44.25756       82.35721       80.28153
C         43.84889       83.81782       80.08212
O         43.87134       81.94893       81.56991
H         41.80854       81.02714       80.20629
H         43.94264       81.86998       78.21546
H         45.36971       82.32913       80.18627
H         44.48540       81.21884       81.84289
H         44.16940       84.17176       79.07826
H         42.74894       83.93864       80.17283
H         44.34037       84.45167       80.84957
N         45.25361       79.64586       78.53279
C         45.95558       78.37023       78.70650
C         46.65294       78.34502       80.06719
O         47.35604       79.29449       80.38270
C         47.02985       78.12314       77.59050
C         46.50637       78.27518       76.13595
C         47.66815       76.72579       77.76249
C         45.29324       77.41739       75.79451
H         45.57585       80.29645       77.80285
H         45.21943       77.54119       78.63521
H         47.84471       78.87351       77.69878
H         47.33138       78.02315       75.43398
H         46.23582       79.33122       75.93497
H         46.90418       75.92145       77.71239
H         48.43312       76.54119       76.97964
H         48.18537       76.64740       78.73591
H         45.02385       77.56330       74.72782
H         45.48547       76.33825       75.96214
H         44.43890       77.75550       76.40453
N         46.57779       77.24483       80.87455
C         47.30157       77.12182       82.14368
C         48.44609       76.12606       81.99762
O         48.60098       75.55057       80.93467
C         46.34352       76.66213       83.26172
C         45.20286       77.60853       83.47977
O         44.38721       77.80572       82.59415
O         45.05321       78.21343       84.67361
H         46.04338       76.42973       80.54546
H         47.75584       78.09517       82.42960
H         46.90517       76.58320       84.21569
H         45.92890       75.65926       83.01814
N         49.32101       75.90194       83.02555
C         50.43609       74.96354       82.91355
C         49.97287       73.51744       82.73016
O         50.48479       72.88578       81.81415
C         51.40103       75.03533       84.11454
C         52.62918       74.20275       83.80291
C         53.52904       74.62120       82.80300
C         52.86186       72.98682       84.46606
C         54.63657       73.83631       82.47265
C         53.96711       72.19902       84.12409
C         54.85311       72.62338       83.12929
H         49.21337       76.44051       83.89692
H         51.02979       75.27458       82.02468
H         50.88596       74.66823       85.02386
H         51.72219       76.08098       84.31124
H         53.37156       75.55446       82.27603
H         52.17550       72.63632       85.22611
H         55.32205       74.16536       81.70160
H         54.13304       71.25422       84.62444
H         55.70556       72.01131       82.86395
N         49.03688       72.89232       83.52208
C         48.60795       71.51195       83.32104
C         47.82489       71.30408       82.02770
O         47.45175       70.17147       81.76165
C         47.76284       71.20685       84.56206
C         47.14930       72.55591       84.85652
C         48.33865       73.48809       84.64734
H         49.48000       70.82003       83.30598
H         47.05133       70.35899       84.46102
H         48.45074       70.98352       85.40935
H         46.39573       72.76354       84.06165
H         46.65697       72.65506       85.84684
H         47.93393       74.49359       84.45455
H         49.01403       73.48888       85.52923
N         47.58864       72.32637       81.15548
C         46.95570       72.15432       79.85647
C         47.98052       72.28984       78.73679
O         47.71884       71.79686       77.64806
C         45.89635       73.24036       79.64793
C         44.84596       73.32967       80.76437
C         43.91195       74.47970       80.50857
O         42.93329       74.77353       81.37473
O         44.01275       75.15090       79.49529
H         47.89149       73.27159       81.39541
H         46.49529       71.14442       79.78465
H         45.39258       73.07806       78.66852
H         46.42474       74.21983       79.61103
H         45.34309       73.50177       81.74179
H         44.26370       72.38452       80.81737
N         49.14220       72.98554       78.91229
C         50.15051       73.16666       77.89338
H         51.11492       72.76103       78.26642
H         49.89009       72.65735       76.94441
H         50.27597       74.25302       77.69839
H         49.33961       73.44174       79.80528
Ca        41.43489       76.22126       80.51834
O         40.78713       78.79655       78.83221
H         41.37974       79.01333       78.07163
H         39.87979       78.78838       78.43664
O         42.31773       76.77399       77.18510
H         42.50521       76.16341       76.42912
H         43.04708       76.60756       77.82867

Ca 1.0



