%chk=holoCaM-CaMKII.loop4.water1.frame58.chk
%nprocshared=20
%mem=10GB
%nosave
#b3lyp/svp scf=(tight,noincore,xqc) Test 
#IOP(5/87=12) Density=Current Pop=(MK,readradii) iop(6/33=2) iop(6/42=6)

holoCaM-CaMKII.loop4.water1.frame58 

   -3  1 
C          3.18492       43.40667       64.73291
C          4.16906       43.19657       63.61728
O          4.51335       44.14429       62.93218
H          2.28286       42.78295       64.54934
H          3.63815       43.10502       65.70013
H          2.87017       44.46967       64.79517
N          4.64761       41.94779       63.37530
C          5.55124       41.58901       62.27893
C          4.90722       41.92510       60.93669
O          3.77806       41.51905       60.69991
C          5.86417       40.08268       62.40171
C          6.57813       39.46979       61.23132
O          6.02444       38.56400       60.63233
O          7.80408       39.84593       60.82003
H          4.31902       41.19918       64.00713
H          6.51231       42.14211       62.37579
H          4.90042       39.53669       62.50946
H          6.44960       39.90703       63.32956
N          5.59089       42.66475       60.00948
C          5.02567       43.12408       58.73633
C          5.68075       42.42427       57.53851
O          5.17019       42.56522       56.43705
C          5.19901       44.68450       58.62425
C          4.66841       45.39854       59.89430
C          4.53641       45.27028       57.35763
C          4.93068       46.90777       59.92209
H          6.55913       42.93146       60.22731
H          3.94408       42.86628       58.70889
H          6.29017       44.89641       58.56441
H          5.20921       44.99223       60.76831
H          3.58128       45.20785       60.02302
H          3.44312       45.07807       57.36387
H          4.71443       46.35934       57.27666
H          4.97818       44.86637       56.42974
H          4.35843       47.44155       59.13863
H          4.61325       47.31961       60.90294
H          6.01254       47.11301       59.78797
N          6.79898       41.65290       57.66039
C          7.48082       41.04085       56.52015
C          7.34738       39.52527       56.56394
O          6.93976       38.95436       55.56131
C          8.92005       41.59148       56.39033
C          9.77802       41.50146       57.62229
O         10.15594       40.31209       58.11005
O         10.17990       42.52132       58.16039
H          7.21444       41.50992       58.59004
H          7.00108       41.34184       55.56100
H          8.82592       42.67105       56.13427
H          9.43713       41.09458       55.54127
N          7.53721       38.82317       57.71397
C          7.21506       37.40867       57.84800
C          8.26940       36.59638       58.56628
O          8.01509       35.42086       58.78976
H          7.79499       39.33811       58.55725
H          6.99330       36.93928       56.86639
H          6.29256       37.33471       58.45964
N          9.45850       37.12380       58.98031
C         10.44623       36.33542       59.70996
C          9.92944       35.84737       61.06304
O         10.52490       34.92607       61.60331
C         11.79413       37.08672       59.84717
C         11.73407       38.40808       60.57244
O         10.57398       38.90028       61.03716
O         12.75518       39.06008       60.71721
H          9.68203       38.09451       58.74938
H         10.65041       35.43153       59.09348
H         12.18515       37.28879       58.82632
H         12.52177       36.42875       60.36903
N          8.84396       36.40955       61.67454
C          8.25742       35.89438       62.90468
C          8.51407       36.76923       64.11158
O          7.98545       36.45193       65.16789
H          8.39992       37.23951       61.25929
H          8.65651       34.88833       63.15302
H          7.16359       35.78583       62.74153
N          9.35866       37.83677       64.06096
C          9.71151       38.64705       65.22139
C          9.36095       40.10253       64.98335
O          8.92841       40.44543       63.89515
C         11.19447       38.39812       65.59825
C         12.21778       38.60386       64.45900
C         13.62047       38.19187       64.85305
N         14.61808       38.23596       63.93958
O         13.86116       37.79355       65.98410
H          9.80868       38.06944       63.17019
H          9.11007       38.33728       66.10371
H         11.26312       37.33187       65.90940
H         11.47444       39.02339       66.47343
H         12.21776       39.66490       64.13083
H         11.94793       37.95993       63.59804
H         14.43679       38.55259       62.97612
H         15.57263       37.93773       64.19148
N          9.44930       41.00582       65.99779
C          9.01929       42.39601       65.88388
C         10.20891       43.29471       66.15072
O         10.86376       43.15097       67.17429
C          7.83053       42.66125       66.84837
C          7.37326       44.13118       66.80190
C          6.63788       41.76527       66.46843
H          9.79336       40.68506       66.91643
H          8.64135       42.61524       64.85919
H          8.13687       42.42425       67.89079
H          7.05663       44.41721       65.77524
H          6.51491       44.28646       67.49100
H          8.18861       44.80918       67.12757
H          6.31102       41.98766       65.43165
H          6.90772       40.69047       66.52651
H          5.78108       41.93909       67.15307
N         10.52302       44.27065       65.25694
C         11.67561       45.15133       65.36474
C         11.22716       46.51650       65.86299
O         10.04194       46.71995       66.08710
C         12.33898       45.20622       63.95907
C         13.61684       45.99983       63.86490
N         14.70570       45.64918       64.58643
O         13.67503       46.96232       63.11400
H          9.88940       44.42280       64.46193
H         12.39556       44.74928       66.10989
H         11.60100       45.62869       63.23886
H         12.57295       44.17036       63.63229
H         14.68061       44.83447       65.21554
H         15.57715       46.19517       64.51365
N         12.14181       47.49342       66.10506
C         11.79844       48.84591       66.52538
C         11.00196       49.55007       65.43568
O         10.00068       50.17851       65.74219
C         13.09343       49.62377       66.83513
C         12.83646       50.96420       67.47886
C         12.20662       51.03911       68.73498
C         13.25060       52.14766       66.84889
C         11.99738       52.27662       69.34867
C         13.03995       53.38512       67.46498
C         12.41460       53.45293       68.71899
O         12.21505       54.63847       69.32892
H         13.13824       47.26455       65.99404
H         11.20330       48.78887       67.46352
H         13.68381       49.73207       65.89843
H         13.70797       49.03569       67.55189
H         11.88701       50.14022       69.24742
H         13.74100       52.11317       65.88428
H         11.51695       52.31969       70.31847
H         13.36835       54.28941       66.96926
H         12.49920       55.47459       68.93316
N         11.38679       49.46026       64.12764
C         10.64458       50.06442       63.01761
C          9.24283       49.47775       62.83388
O          8.50366       50.01185       62.01815
C         11.41189       49.87984       61.68610
C         12.76494       50.60630       61.67396
C         13.47833       50.38497       60.37053
O         14.68856       49.79427       60.35679
O         12.97097       50.74428       59.31964
H         12.24428       48.93090       63.91938
H         10.53679       51.15232       63.22203
H         10.80265       50.29103       60.85033
H         11.56358       48.79167       61.50029
H         13.41107       50.23874       62.49753
H         12.60109       51.69607       61.81632
N          8.81156       48.38228       63.52244
C          7.49231       47.77948       63.35509
C          6.67728       47.84316       64.64395
O          5.53431       47.40778       64.62812
C          7.66153       46.31805       62.90091
C          8.54190       46.22133       61.64422
C          8.76205       44.80250       61.24885
O          8.47275       44.41671       60.12901
O          9.33482       43.96051       62.12231
H          9.45351       47.91736       64.16664
H          6.91391       48.32117       62.57549
H          6.66528       45.86637       62.70037
H          8.13972       45.74462       63.72391
H          9.54511       46.64759       61.85240
H          8.08318       46.78733       60.80823
N          7.18622       48.38243       65.79114
C          6.45189       48.50910       67.03088
H          5.41593       48.12282       66.95344
H          6.98631       47.95413       67.83053
H          6.41023       49.58280       67.31449
H          8.14450       48.73597       65.81287
Ca         9.26169       41.43908       61.40494
O         12.49884       42.59732       61.00515
H         13.15294       42.22313       60.36260
H         12.56269       43.57785       60.88180

Ca 1.0



