%chk=holoCaM.loop4.water3.frame27.chk
%nprocshared=20
%mem=10GB
%nosave
#b3lyp/svp scf=(tight,noincore,xqc) Test 
#IOP(5/87=12) Density=Current Pop=(MK,readradii) iop(6/33=2) iop(6/42=6)

holoCaM.loop4.water3.frame27 

   -3  1 
C         83.60870      110.75393       14.36031
C         82.32578      111.22992       13.74739
O         81.36277      111.41610       14.47679
H         84.39677      111.51986       14.19423
H         83.49019      110.61528       15.45774
H         83.92255      109.79420       13.90476
N         82.25782      111.50683       12.41135
C         81.11669      112.19642       11.82149
C         80.85765      111.77543       10.37277
O         81.78136      111.85900        9.57450
C         81.44380      113.70386       11.83930
C         80.27668      114.55686       11.45295
O         79.17612      114.06071       11.28758
O         80.43248      115.88856       11.33722
H         83.12310      111.41827       11.85631
H         80.20830      112.03336       12.44219
H         82.29330      113.90335       11.15032
H         81.74969      114.01738       12.85986
N         79.60729      111.40536        9.94340
C         79.28719      111.15665        8.53138
C         78.22818      112.12128        7.96015
O         78.04238      112.07761        6.75162
C         78.85101      109.67382        8.27752
C         77.49540      109.32451        8.94990
C         79.96722      108.70350        8.70423
C         76.93865      107.95208        8.55991
H         78.85433      111.33814       10.63484
H         80.19998      111.32886        7.92071
H         78.71507      109.55848        7.17869
H         76.73064      110.06903        8.64375
H         77.59772      109.35839       10.04604
H         79.71869      107.65816        8.43085
H         80.91443      108.95926        8.18544
H         80.13942      108.75110        9.79859
H         75.94694      107.80760        9.04026
H         76.80624      107.88885        7.45880
H         77.59663      107.12896        8.90259
N         77.44839      112.94818        8.73253
C         76.32507      113.72608        8.17833
C         76.24714      115.20035        8.62225
O         75.31596      115.87049        8.19690
C         74.99395      112.98503        8.45150
C         74.63980      112.79740        9.89606
O         75.45673      113.22433       10.86897
O         73.59779      112.23560       10.19140
H         77.56056      112.91766        9.75112
H         76.40145      113.75655        7.06982
H         75.04716      111.97781        7.98448
H         74.16519      113.54010        7.96060
N         77.18482      115.79791        9.41229
C         77.17528      117.22535        9.74011
C         76.09545      117.70339       10.71205
O         76.04520      118.90130       10.95209
H         77.99999      115.25464        9.70120
H         77.09869      117.80123        8.79271
H         78.15060      117.48755       10.20551
N         75.22850      116.85531       11.33339
C         74.18793      117.28512       12.28311
C         74.74364      118.07477       13.47006
O         74.26887      119.17450       13.71594
C         73.35031      116.07427       12.77142
C         74.13007      115.06762       13.57927
O         75.26548      114.57109       13.05977
O         73.73573      114.70274       14.67475
H         75.30324      115.85809       11.10377
H         73.47756      117.94541       11.73511
H         72.95023      115.55858       11.87144
H         72.48132      116.43203       13.36680
N         75.76979      117.58604       14.22237
C         76.37704      118.28521       15.34807
C         76.60312      117.39803       16.56719
O         77.21518      117.88032       17.51039
H         76.19650      116.70498       13.93097
H         75.79175      119.18549       15.63775
H         77.38145      118.62536       15.01995
N         76.16434      116.10611       16.63158
C         76.42089      115.19769       17.75161
C         77.07574      113.91227       17.25362
O         77.29926      113.79059       16.05973
C         75.08806      114.87529       18.45692
C         74.46994      116.13149       19.08671
C         73.22402      115.79577       19.86227
N         72.13610      115.28404       19.24168
O         73.19509      115.99384       21.06783
H         75.60543      115.73227       15.85716
H         77.10702      115.65912       18.49539
H         75.26649      114.15077       19.27841
H         74.38264      114.41174       17.73229
H         74.22246      116.88138       18.30555
H         75.21610      116.58064       19.77978
H         72.13602      115.11957       18.22481
H         71.28723      115.05753       19.78064
N         77.37013      112.88633       18.10770
C         77.91064      111.59836       17.67301
C         76.80432      110.56206       17.78462
O         76.19014      110.45092       18.83767
C         79.14121      111.16429       18.51955
C         79.75061      109.86201       17.95707
C         80.23168      112.24316       18.55851
H         77.14344      112.99050       19.10815
H         78.24737      111.65729       16.61341
H         78.81266      110.98192       19.56685
H         80.60641      109.52906       18.58150
H         79.00674      109.03903       17.94564
H         80.11495      110.01794       16.91740
H         81.08216      111.89335       19.18462
H         80.60868      112.46681       17.53816
H         79.84144      113.17533       19.01676
N         76.51783      109.75089       16.73067
C         75.44357      108.76355       16.71225
C         76.02481      107.35796       16.71273
O         77.23799      107.21486       16.73587
C         74.59260      109.05750       15.45421
C         73.38950      108.17540       15.24580
N         72.39748      108.12801       16.16335
O         73.30285      107.50488       14.22758
H         77.10241      109.82558       15.88746
H         74.81369      108.85626       17.62277
H         75.25000      108.98644       14.55665
H         74.22666      110.09899       15.53714
H         72.44927      108.69009       17.02451
H         71.57728      107.52297       16.01168
N         75.20959      106.26511       16.75878
C         75.70240      104.89023       16.73413
C         76.27995      104.47827       15.38046
O         76.96866      103.46809       15.34185
C         74.60644      103.91064       17.22098
C         73.29831      104.00434       16.45707
C         73.19952      103.61604       15.10994
C         72.14944      104.49121       17.10966
C         71.97997      103.72014       14.43112
C         70.93466      104.59717       16.42904
C         70.84397      104.21330       15.08922
O         69.66277      104.32043       14.44797
H         74.20209      106.42115       16.87743
H         76.53061      104.82162       17.47587
H         74.41396      104.17325       18.28504
H         74.97867      102.86375       17.21307
H         74.05799      103.22675       14.58151
H         72.19283      104.80002       18.14689
H         71.91885      103.41656       13.39375
H         70.06295      104.97995       16.94544
H         69.55373      104.06264       13.52170
N         76.05215      105.18603       14.23140
C         76.72450      104.86875       12.96710
C         78.12862      105.46931       12.93263
O         78.84901      105.25302       11.96813
C         75.92754      105.42620       11.76629
C         74.53658      104.79050       11.64549
C         73.81010      105.31433       10.43967
O         72.63607      105.95732       10.58530
O         74.27242      105.14908        9.32148
H         75.44023      106.01324       14.26375
H         76.79489      103.76474       12.84805
H         76.48925      105.20532       10.83107
H         75.82800      106.53162       11.85845
H         73.94132      105.01527       12.55480
H         74.63591      103.68768       11.54888
N         78.55122      106.28664       13.93446
C         79.79339      107.03563       13.96315
C         80.62026      106.65906       15.18875
O         81.69041      107.22648       15.35886
C         79.41384      108.53795       14.01783
C         78.50816      108.91920       12.83208
C         77.83503      110.25757       12.92569
O         78.01024      111.11408       13.94673
O         77.03827      110.56304       12.05420
H         77.92112      106.47338       14.70982
H         80.39911      106.83656       13.05158
H         80.31993      109.17445       14.02444
H         78.85912      108.71039       14.96248
H         77.66522      108.20443       12.75935
H         79.09951      108.85670       11.89601
N         80.19087      105.72042       16.08946
C         80.92384      105.35167       17.28204
H         81.87761      105.90782       17.38555
H         80.29444      105.56152       18.17318
H         81.14548      104.26415       17.25301
H         79.29725      105.22921       15.95332
Ca        76.75601      112.94420       13.52260
O         78.30310      115.79683       13.31852
H         77.99295      116.23987       12.48939
H         78.68827      116.52728       13.86337
O         74.00861      111.54327       13.51957
H         74.01049      112.18389       12.76929
H         73.82649      112.10106       14.31658
O         79.75388      114.12258       14.98978
H         79.56901      113.24394       14.57414
H         80.71947      114.11105       15.19887

Ca 1.0



