%chk=holoCaM.loop4.water3.frame197.chk
%nprocshared=20
%mem=10GB
%nosave
#b3lyp/svp scf=(tight,noincore,xqc) Test 
#IOP(5/87=12) Density=Current Pop=(MK,readradii) iop(6/33=2) iop(6/42=6)

holoCaM.loop4.water3.frame197 

   -3  1 
C         28.04238       53.83431       78.51966
C         29.29060       53.01167       78.60078
O         29.21598       51.89923       79.09915
H         27.18199       53.27191       78.94755
H         28.17260       54.76994       79.10078
H         27.81704       54.07314       77.46091
N         30.48854       53.49866       78.15578
C         31.72377       52.72459       78.26579
C         32.94842       53.56388       77.91900
O         32.95851       54.20418       76.87583
C         31.70260       51.46634       77.36536
C         32.61603       50.36946       77.87376
O         32.68313       49.32693       77.24662
O         33.17560       50.44940       79.10679
H         30.51775       54.46055       77.78395
H         31.77885       52.40112       79.32075
H         31.92842       51.74629       76.31270
H         30.69601       51.00253       77.36224
N         34.04049       53.55645       78.73490
C         35.25979       54.32152       78.50278
C         36.46587       53.42847       78.21960
O         37.47977       53.97670       77.81148
C         35.58936       55.22822       79.73848
C         35.80300       54.38018       81.03175
C         34.49836       56.29120       79.94089
C         36.35012       55.15870       82.22545
H         34.01631       52.94939       79.55182
H         35.13040       54.96198       77.60158
H         36.53838       55.76527       79.51511
H         36.53697       53.57369       80.83127
H         34.85346       53.90964       81.34731
H         34.76956       56.98665       80.76120
H         34.38714       56.90025       79.01938
H         33.52277       55.81834       80.18184
H         37.33261       55.60798       81.97148
H         35.64717       55.94757       82.55715
H         36.49437       54.45622       83.07557
N         36.48231       52.08833       78.50959
C         37.71289       51.29762       78.43757
C         37.56127       49.92867       77.78312
O         38.58532       49.28930       77.57789
C         38.32657       51.18365       79.85137
C         37.47725       50.48387       80.88492
O         36.38851       50.00647       80.60740
O         37.93437       50.38954       82.14735
H         35.65675       51.66321       78.94379
H         38.46034       51.83954       77.81816
H         38.52519       52.21395       80.21913
H         39.30247       50.65720       79.78769
N         36.35737       49.39804       77.42629
C         36.23368       48.11341       76.75375
C         36.80824       46.96766       77.56017
O         37.70469       46.29356       77.07402
H         35.48884       49.91786       77.60796
H         36.74783       48.17132       75.76980
H         35.15896       47.90196       76.56264
N         36.31040       46.67273       78.79097
C         36.74795       45.53223       79.59656
C         35.61354       44.53225       79.80145
O         35.76548       43.62141       80.60501
C         37.36835       46.00885       80.93702
C         36.50788       46.82976       81.86473
O         35.37963       47.17550       81.56377
O         37.01345       47.20842       83.05353
H         35.55502       47.26993       79.15564
H         37.55809       44.96638       79.08712
H         38.27109       46.61368       80.70823
H         37.70309       45.10945       81.49916
N         34.45640       44.61171       79.08017
C         33.32376       43.72046       79.26633
C         32.58610       43.94989       80.56946
O         31.58543       43.27901       80.77883
H         34.37240       45.31010       78.33144
H         33.65371       42.66257       79.18396
H         32.58837       43.91285       78.45449
N         32.99712       44.87387       81.48720
C         32.29205       45.14590       82.72607
C         31.93485       46.64364       82.81351
O         31.50191       47.10150       81.55987
C         33.16851       44.71666       83.92179
C         33.35416       43.19149       83.92908
C         34.15704       42.72560       85.11310
N         35.45324       43.08452       85.25765
O         33.63426       41.99892       85.94504
H         33.84137       45.42164       81.32014
H         31.33803       44.57399       82.75927
H         32.68268       44.99919       84.87874
H         34.15133       45.23709       83.87240
H         33.85791       42.85177       82.99939
H         32.34555       42.72293       83.97144
H         35.91717       43.68179       84.55819
H         35.99871       42.75079       86.06618
N         30.81912       46.80502       83.76150
C         30.46979       48.19964       84.07016
C         31.12046       48.64457       85.38725
O         31.51859       47.80005       86.17856
C         28.91767       48.31454       84.00780
C         28.22262       47.59140       85.17230
C         28.42344       49.75565       83.91327
H         30.83778       46.17976       84.59783
H         30.86934       48.84201       83.25528
H         28.59498       47.82635       83.05915
H         27.11967       47.62342       85.03707
H         28.52710       46.52574       85.21642
H         28.47025       48.07921       86.13907
H         28.67963       50.30799       84.83229
H         28.86907       50.25481       83.02696
H         27.31940       49.76891       83.78112
N         31.31792       49.96241       85.65741
C         32.00120       50.46336       86.84706
C         31.04814       51.35233       87.62485
O         29.94360       51.59300       87.16019
C         33.26778       51.23346       86.38381
C         34.15735       51.74260       87.49271
N         34.76604       50.88429       88.34343
O         34.34891       52.94418       87.60984
H         30.99126       50.65366       84.97707
H         32.30699       49.62030       87.50259
H         32.94907       52.08994       85.75256
H         33.88858       50.56302       85.75244
H         34.63395       49.86722       88.25109
H         35.38078       51.23892       89.09154
N         31.38744       51.86180       88.83923
C         30.50887       52.76879       89.56866
C         30.42732       54.16040       88.92013
O         29.63565       54.96448       89.38828
C         30.89748       52.88996       91.06169
C         32.20861       53.59779       91.31636
C         32.19974       54.95143       91.69240
C         33.44092       52.92858       91.20708
C         33.39745       55.62843       91.92883
C         34.63753       53.60720       91.44566
C         34.62173       54.95829       91.80220
O         35.78547       55.59994       92.02442
H         32.26687       51.55062       89.25773
H         29.49136       52.31532       89.56593
H         30.89488       51.89765       91.56332
H         30.08163       53.47088       91.54650
H         31.26422       55.48828       91.79032
H         33.49126       51.87974       90.95610
H         33.37075       56.67390       92.20664
H         35.57818       53.07860       91.35622
H         35.81587       56.53554       92.26930
N         31.20124       54.51255       87.84676
C         31.13920       55.81484       87.18038
C         30.55472       55.68310       85.77702
O         30.48130       56.68508       85.07594
C         32.55182       56.43339       87.11416
C         33.13108       56.70672       88.50784
C         34.50294       57.31126       88.41406
O         34.66879       58.38186       87.85074
O         35.55748       56.67820       88.96212
H         31.85881       53.83122       87.44803
H         30.47442       56.51677       87.72923
H         32.49967       57.40004       86.56497
H         33.22999       55.75037       86.55484
H         33.19553       55.75472       89.07362
H         32.46724       57.40731       89.05993
N         30.06694       54.49662       85.32005
C         29.44898       54.29761       84.01829
C         27.98150       53.97270       84.22960
O         27.13475       54.66379       83.68390
C         30.15006       53.14572       83.27536
C         31.65527       53.38428       83.11141
C         32.31125       52.20203       82.46576
O         32.92178       52.33878       81.43158
O         32.25745       50.98565       83.02507
H         30.10298       53.67611       85.93230
H         29.52810       55.21276       83.38948
H         29.68276       53.00288       82.27567
H         30.00478       52.21756       83.85282
H         32.13200       53.53254       84.10114
H         31.82349       54.29921       82.50124
N         27.61465       52.94470       85.04931
C         26.24611       52.58158       85.34432
H         25.51465       53.21055       84.79893
H         26.08190       51.51909       85.06931
H         26.07046       52.69233       86.43583
H         28.34010       52.39449       85.51838
Ca        32.81315       48.81190       80.68193
O         34.75618       49.80320       83.30567
H         34.98837       48.90247       83.64175
H         35.56097       50.35239       83.47804
O         32.37300       46.87846       78.68902
H         33.26005       47.28698       78.52534
H         32.09131       46.53866       77.80460
O         30.20743       49.60393       80.07948
H         29.87327       48.70093       80.30335
H         30.34335       50.04911       80.95381

Ca 1.0



