%chk=holoCaM-CaMKII.loop3.water2.frame460.chk
%nprocshared=20
%mem=10GB
%nosave
#b3lyp/svp scf=(tight,noincore,xqc) Test 
#IOP(5/87=12) Density=Current Pop=(MK,readradii) iop(6/33=2) iop(6/42=6)

holoCaM-CaMKII.loop3.water2.frame460 

   0  1 
C         69.49477       77.71189       33.36136
C         69.26054       77.94910       31.90118
O         70.09403       77.54780       31.10130
H         70.42940       78.22049       33.67567
H         68.65298       78.09784       33.97365
H         69.59145       76.62081       33.54211
N         68.14208       78.60265       31.47860
C         67.83425       78.83009       30.07734
C         67.86295       80.32139       29.79141
O         67.16852       81.08565       30.44662
C         66.48799       78.16780       29.74113
C         66.16392       78.21069       28.27693
O         66.95693       78.86674       27.41394
O         65.18042       77.62738       27.86516
H         67.47034       78.95181       32.17984
H         68.59325       78.33122       29.43587
H         65.66175       78.63265       30.32064
H         66.56013       77.09466       30.02361
N         68.68383       80.79061       28.81132
C         68.90179       82.19799       28.49864
C         67.59267       82.92531       28.20055
O         67.33235       83.91883       28.86476
C         69.91703       82.28905       27.33445
C         70.49945       83.68765       27.08711
C         71.49296       83.63823       25.91118
C         72.19309       84.98529       25.68822
N         73.08004       84.92525       24.52453
H         69.22036       80.09452       28.27298
H         69.37877       82.66985       29.38756
H         69.44843       81.89114       26.41280
H         70.78513       81.63957       27.58891
H         71.03220       84.01738       28.00692
H         69.69006       84.41297       26.85915
H         70.94022       83.35217       24.98973
H         72.27390       82.86943       26.10730
H         72.78983       85.24386       26.59187
H         71.43455       85.78174       25.52652
H         73.80716       84.18476       24.65656
H         72.52455       84.72089       23.66188
H         73.55617       85.84862       24.40558
N         66.70839       82.48016       27.25299
C         65.44088       83.16441       26.95848
C         64.19739       82.34137       27.31846
O         63.09891       82.82793       27.08548
C         65.40783       83.65236       25.49066
C         65.35828       82.58059       24.43642
O         65.31325       82.89797       23.25926
O         65.35467       81.28014       24.76198
H         66.94057       81.62271       26.73102
H         65.36354       84.08964       27.57034
H         66.30236       84.28667       25.30959
H         64.50719       84.29011       25.35433
N         64.27610       81.13513       27.95359
C         63.10555       80.40907       28.43715
C         62.26252       79.71344       27.37886
O         61.26982       79.11187       27.76542
H         65.19848       80.76725       28.21702
H         62.46837       81.10571       29.02683
H         63.44672       79.61269       29.13241
N         62.57068       79.71995       26.04865
C         61.74103       79.04257       25.04483
C         61.70785       77.51765       25.19846
O         60.85598       76.89427       24.58123
C         62.16800       79.44304       23.61372
C         63.57429       79.04227       23.23988
N         64.09178       79.42025       22.05167
O         64.25844       78.38858       24.00703
H         63.39015       80.25160       25.73794
H         60.70161       79.41628       25.18364
H         62.09714       80.54948       23.53731
H         61.46671       79.00064       22.87383
H         63.53653       79.97566       21.38629
H         65.05864       79.16946       21.80553
N         62.59336       76.85417       25.99664
C         62.52066       75.43179       26.29373
C         63.74541       74.62789       25.89135
O         63.81450       73.48822       26.33151
H         63.32915       77.38670       26.46639
H         61.62715       74.95019       25.84254
H         62.41183       75.34850       27.39773
N         64.72276       75.09397       25.05116
C         65.89792       74.29136       24.69360
C         67.18695       75.03060       24.97739
O         67.24231       76.22049       24.70019
C         65.89566       73.82181       23.21998
C         66.30408       74.84243       22.17328
C         67.60875       74.78573       21.64203
C         65.41658       75.81812       21.69169
C         68.01925       75.68119       20.65504
C         65.82686       76.70251       20.68197
C         67.13003       76.63714       20.16396
O         67.53908       77.48225       19.19555
H         64.62137       76.02725       24.63327
H         65.89918       73.34575       25.27918
H         64.93942       73.32775       22.94474
H         66.66175       73.01505       23.18626
H         68.31773       74.04791       21.99719
H         64.40578       75.87909       22.07358
H         69.02855       75.62355       20.26562
H         65.13236       77.43523       20.29457
H         66.95851       78.15775       18.81805
N         68.30498       74.36964       25.40482
C         69.59385       75.04139       25.55860
C         70.62652       74.50224       24.57839
O         70.55247       73.34511       24.18455
C         70.11597       75.00709       27.02280
C         70.52081       73.58190       27.47805
C         69.07168       75.63524       27.96513
C         71.22448       73.56530       28.83694
H         68.24866       73.35636       25.58876
H         69.47424       76.11253       25.31095
H         71.03059       75.63836       27.05399
H         71.24893       73.16148       26.75282
H         69.63413       72.91390       27.50851
H         69.46244       75.73668       28.99618
H         68.80607       76.65293       27.61756
H         68.14582       75.02189       27.99433
H         72.12606       74.21532       28.80825
H         70.55280       73.90376       29.65026
H         71.54674       72.52936       29.07210
N         71.63514       75.31401       24.15582
C         72.72710       74.91193       23.27506
C         74.05903       75.14873       23.97972
O         74.04943       75.52120       25.14199
C         72.62991       75.71253       21.96430
O         72.76659       77.08523       22.21214
H         71.63662       76.29161       24.48171
H         72.65589       73.83357       23.01127
H         71.63977       75.51204       21.49698
H         73.42102       75.37631       21.25857
H         72.77945       77.52388       21.32182
N         75.24983       74.97560       23.34246
C         76.54566       75.24207       23.97006
C         76.65011       76.67475       24.47203
O         77.01803       76.87143       25.62108
C         77.68081       74.97600       22.97724
H         75.23801       74.65745       22.36118
H         76.69096       74.54918       24.82972
H         77.64916       73.91790       22.64192
H         77.59358       75.63859       22.08970
H         78.66316       75.15761       23.46503
N         76.31087       77.72131       23.66618
C         76.38502       79.12449       24.07503
C         75.66063       79.36674       25.38341
O         76.23944       79.93807       26.29727
C         75.76346       80.01543       22.98750
H         75.95149       77.50327       22.72388
H         77.44976       79.42067       24.19819
H         76.30495       79.88618       22.02726
H         74.69427       79.75349       22.82518
H         75.82070       81.08525       23.28302
N         74.38305       78.94062       25.53483
C         73.58448       79.16212       26.73476
C         74.23771       78.52960       27.95357
O         74.47830       79.23094       28.92636
C         72.16791       78.60499       26.51670
C         71.45665       79.34366       25.36371
C         70.10688       78.76660       25.12313
O         69.80651       78.32189       24.02705
O         69.22048       78.72958       26.12448
H         73.96815       78.42542       24.74429
H         73.48373       80.25624       26.91743
H         71.57151       78.73308       27.44790
H         72.23434       77.52059       26.29609
H         72.02625       79.28349       24.41486
H         71.34919       80.41488       25.62391
N         74.57590       77.21294       27.96314
C         75.21825       76.57659       29.09154
H         76.17538       77.08973       29.32505
H         74.54889       76.60726       29.97622
H         75.43973       75.51463       28.84831
H         74.39251       76.64337       27.13406
Ca        66.62555       78.90366       25.19264
O         68.32237       81.56621       24.11886
H         69.26781       81.49042       23.83698
H         68.21198       82.51904       24.36374
O         67.63322       79.32304       22.33517
H         68.17403       78.70944       21.77889
H         67.45637       80.10094       21.74922

Ca 1.0



