%chk=holoCaM.loop2.water2.frame480.chk
%nprocshared=20
%mem=10GB
%nosave
#b3lyp/svp scf=(tight,noincore,xqc) Test 
#IOP(5/87=12) Density=Current Pop=(MK,readradii) iop(6/33=2) iop(6/42=6)

holoCaM.loop2.water2.frame480 

   -2  1 
C         74.06605       71.10454       60.57801
C         72.60047       70.90915       60.81672
O         72.22130       70.00120       61.54248
H         74.66245       70.35348       61.13674
H         74.27496       70.99184       59.49242
H         74.36535       72.12332       60.90104
N         71.70890       71.73613       60.20859
C         70.26388       71.59330       60.33580
C         69.86148       70.22807       59.79175
O         70.13793       69.95960       58.63055
C         69.59110       72.74930       59.55905
C         68.10020       72.80980       59.66186
O         67.50039       73.68310       59.06032
O         67.41551       71.93326       60.41051
H         72.08560       72.49287       59.61503
H         69.98761       71.68665       61.41012
H         69.86439       72.67499       58.48450
H         69.97969       73.71438       59.95414
N         69.24655       69.30195       60.58796
C         68.96256       67.93391       60.15267
C         67.47403       67.64706       60.00363
O         67.14111       66.56995       59.52870
C         69.62888       66.95072       61.11703
H         68.99794       69.56504       61.55213
H         69.39777       67.76217       59.14444
H         69.47440       65.90446       60.77772
H         70.72214       67.14726       61.15420
H         69.21134       67.06543       62.14043
N         66.52987       68.58166       60.30566
C         65.11626       68.45762       59.95174
C         64.74169       69.50002       58.90008
O         63.58870       69.52531       58.49242
C         64.21189       68.52172       61.20966
C         64.33160       69.77224       62.04269
O         63.74187       69.84383       63.10813
O         65.12172       70.78580       61.65167
H         66.83678       69.46275       60.72967
H         64.91860       67.46920       59.48157
H         64.49304       67.66361       61.85850
H         63.14798       68.38644       60.91506
N         65.66902       70.36140       58.37336
C         65.37301       71.31282       57.31661
C         64.41030       72.41914       57.70403
O         64.06416       73.19253       56.82233
H         66.65273       70.31135       58.66672
H         64.95979       70.75165       56.45151
H         66.32000       71.79449       56.98509
N         63.92676       72.57463       58.97203
C         62.94073       73.59439       59.31940
C         63.46441       75.00067       59.05951
O         62.73751       75.81181       58.50505
C         62.42963       73.44580       60.77053
C         63.37934       73.94863       61.82915
N         63.01465       74.97373       62.63557
O         64.47877       73.43876       61.96074
H         64.23746       71.93368       59.70905
H         62.04543       73.40988       58.68324
H         62.16635       72.38292       60.96817
H         61.48880       74.03167       60.84703
H         62.09113       75.42142       62.53995
H         63.65494       75.32661       63.35912
N         64.75513       75.31923       59.37098
C         65.37531       76.59591       59.05122
C         66.30829       77.12065       60.13262
O         66.94206       78.13498       59.87210
H         65.35816       74.57272       59.73518
H         64.61433       77.36677       58.79698
H         66.00588       76.43625       58.15164
N         66.46061       76.51842       61.35219
C         67.38127       77.00618       62.38590
C         68.30614       75.88742       62.87507
O         68.16877       74.76087       62.41216
C         66.56331       77.59849       63.55645
C         65.68834       78.76782       63.08056
O         65.75798       76.60016       64.12424
H         65.87769       75.70326       61.58847
H         68.02728       77.81773       61.98281
H         67.27169       77.98583       64.32222
H         65.40711       76.96144       64.97936
H         64.94254       78.42854       62.33027
H         65.13905       79.20503       63.94004
H         66.32032       79.56112       62.62715
N         69.27010       76.12668       63.82254
C         70.13726       75.08420       64.37259
C         69.85905       74.94412       65.87112
O         70.16304       75.85915       66.62546
C         71.66260       75.36984       64.11939
C         72.05729       75.46027       62.62135
C         72.52419       74.26013       64.75048
C         71.71191       76.79264       61.95999
H         69.38184       77.08445       64.18988
H         69.90463       74.11071       63.88777
H         71.96266       76.31803       64.61985
H         71.63217       74.60195       62.05636
H         73.16605       75.39725       62.53833
H         73.60439       74.46985       64.59941
H         72.37638       74.22420       65.84246
H         72.28858       73.27156       64.30658
H         70.62788       76.98607       61.92298
H         72.21592       77.61981       62.50663
H         72.09493       76.78812       60.91746
N         69.28351       73.80879       66.36767
C         69.05994       73.55333       67.79729
C         70.40975       73.23763       68.47003
O         71.39242       73.16125       67.75814
C         68.07791       72.35426       67.91743
C         67.38225       72.16459       69.24159
O         67.47679       73.07071       70.23167
O         66.64021       71.20659       69.38708
H         68.97719       73.09671       65.69141
H         68.57322       74.45380       68.23232
H         68.61375       71.42408       67.62483
H         67.24752       72.50307       67.19330
N         70.56205       73.02807       69.81078
C         71.84935       72.66643       70.41179
C         72.37977       71.31642       69.91193
O         73.50859       71.30625       69.44125
C         71.77632       72.65928       71.95427
C         73.14052       72.41308       72.56947
C         74.18570       73.33798       72.38100
C         73.38377       71.25613       73.33052
C         75.44578       73.10776       72.94158
C         74.64770       71.02900       73.88705
C         75.67706       71.95394       73.69336
H         69.75998       73.14693       70.43525
H         72.57908       73.46042       70.13621
H         71.05441       71.88766       72.28688
H         71.40162       73.63987       72.31808
H         74.02731       74.23926       71.80279
H         72.60006       70.52595       73.48714
H         76.24364       73.82442       72.79265
H         74.83057       70.13455       74.46836
H         76.65391       71.77711       74.12551
N         71.67258       70.13773       69.97195
C         72.19913       68.85252       69.51516
C         72.62511       68.90415       68.05784
O         73.66328       68.34451       67.73385
C         71.06003       67.86225       69.80662
C         69.82269       68.72891       69.73756
C         70.30288       69.99738       70.43247
H         73.08484       68.52689       70.10549
H         71.05007       66.93823       69.18931
H         71.14557       67.55553       70.87474
H         69.61522       68.95615       68.67071
H         68.90538       68.28519       70.18108
H         69.62667       70.81595       70.14191
H         70.31175       69.85506       71.53530
N         71.93077       69.63110       67.14433
C         72.36410       69.80811       65.76029
C         73.73927       70.45871       65.71797
O         74.64248       69.87444       65.13553
C         71.27429       70.58807       64.98359
C         70.05609       69.65226       64.84768
C         68.82063       70.20923       64.22543
O         68.68096       71.49466       63.86138
O         67.88337       69.44825       64.05055
H         71.08083       70.12090       67.45896
H         72.46396       68.81363       65.26792
H         71.62965       70.85256       63.96528
H         71.01733       71.52652       65.52148
H         69.74234       69.27655       65.84291
H         70.37180       68.78270       64.22993
N         73.98964       71.62524       66.37007
C         75.30000       72.24003       66.45343
H         76.07415       71.67023       65.89858
H         75.25636       73.27036       66.04686
H         75.60897       72.29268       67.51983
H         73.22733       72.08277       66.87270
Ca        66.60881       71.77497       63.02602
O         65.48053       70.35360       65.63826
H         65.48497       69.65179       64.94105
H         65.87506       69.90992       66.42972
O         65.49711       73.53246       65.37374
H         65.69594       74.01135       64.53093
H         64.62142       73.89121       65.66415

Ca 1.0



