%chk=holoCaM-CaMKII.loop4.water2.frame181.chk
%nprocshared=20
%mem=10GB
%nosave
#b3lyp/svp scf=(tight,noincore,xqc) Test 
#IOP(5/87=12) Density=Current Pop=(MK,readradii) iop(6/33=2) iop(6/42=6)

holoCaM-CaMKII.loop4.water2.frame181 

   -3  1 
C         90.68562       47.84780        8.88227
C         89.95080       46.78666        9.64392
O         90.32043       45.62549        9.57427
H         91.53270       47.41404        8.31126
H         89.98700       48.34104        8.17350
H         91.07814       48.60822        9.59032
N         88.88853       47.13527       10.41364
C         88.10047       46.18774       11.19227
C         87.34018       45.24099       10.26542
O         86.67353       45.72150        9.35931
C         87.10531       46.97726       12.05748
C         86.38474       46.14279       13.06616
O         85.42268       46.72350       13.79272
O         86.66892       44.97093       13.25914
H         88.64387       48.13786       10.45846
H         88.77974       45.63535       11.88189
H         86.36345       47.47608       11.39694
H         87.64437       47.76277       12.63143
N         87.37665       43.88858       10.45039
C         86.73598       42.92299        9.55036
C         85.55287       42.20024       10.21485
O         84.73451       41.64870        9.49285
C         87.81662       41.92229        9.00488
C         89.00398       42.70939        8.38341
C         87.22439       40.92395        7.99091
C         90.14055       41.84370        7.83270
H         87.90221       43.53675       11.25373
H         86.30243       43.47385        8.68804
H         88.21542       41.33137        9.86042
H         89.45522       43.33633        9.17704
H         88.63829       43.37336        7.57096
H         87.99037       40.19917        7.65020
H         86.43490       40.30131        8.45353
H         86.81029       41.45921        7.11118
H         90.53001       41.15989        8.61411
H         89.81028       41.25384        6.95447
H         90.96907       42.50186        7.49410
N         85.40066       42.13778       11.56815
C         84.31232       41.42077       12.24530
C         83.53400       42.32740       13.22156
O         82.62938       41.83259       13.87903
C         84.88010       40.12626       12.88374
C         86.15594       40.39706       13.61092
O         87.20678       39.92159       13.21417
O         86.14190       41.28562       14.60707
H         86.12121       42.56292       12.16656
H         83.54793       41.06381       11.52041
H         85.11360       39.41191       12.06250
H         84.12707       39.64010       13.54205
N         83.74071       43.67796       13.27075
C         82.86893       44.62533       13.96236
C         82.94623       44.65968       15.48021
O         81.91472       44.52086       16.12098
H         84.45293       44.09094       12.65778
H         81.82090       44.45685       13.63153
H         83.13982       45.64681       13.62408
N         84.12006       44.92498       16.12020
C         84.24732       45.15679       17.56568
C         85.00487       46.44689       17.89051
O         85.31345       46.65284       19.05679
C         84.88029       43.93013       18.26483
C         85.92891       43.22626       17.46535
O         85.70647       42.07819       17.11766
O         87.08204       43.79952       17.08191
H         84.97965       44.96743       15.55358
H         83.25516       45.27875       18.05407
H         84.05974       43.19066       18.40003
H         85.24808       44.17685       19.28357
N         85.30373       47.38934       16.94818
C         86.06673       48.59225       17.25700
C         87.52043       48.29909       17.59152
O         88.22182       49.22311       17.97988
H         84.95301       47.28236       15.99382
H         85.57734       49.11675       18.10676
H         86.05767       49.28014       16.38355
N         88.04800       47.04926       17.44998
C         89.41340       46.68139       17.79061
C         90.13235       46.14414       16.57114
O         89.58368       45.31250       15.85837
C         89.41147       45.57781       18.85977
C         88.86925       46.04081       20.21673
C         88.88863       44.92947       21.24355
N         88.49546       45.17776       22.51244
O         89.26049       43.80361       20.94148
H         87.45778       46.29426       17.07908
H         89.98603       47.54156       18.20407
H         90.45997       45.23729       19.01616
H         88.81293       44.72013       18.50078
H         87.82678       46.40580       20.10696
H         89.50441       46.87506       20.58545
H         88.18628       46.11975       22.79169
H         88.50863       44.42692       23.21885
N         91.42451       46.50080       16.34736
C         92.25212       45.95061       15.28455
C         93.30701       45.07338       15.93341
O         94.04093       45.56925       16.77993
C         92.89211       47.10778       14.46724
C         93.83630       46.58120       13.37270
C         91.81008       47.98830       13.82170
H         91.87723       47.14932       17.01180
H         91.65071       45.32776       14.58693
H         93.49065       47.74582       15.15611
H         94.29516       47.43129       12.82355
H         94.66418       45.98931       13.81555
H         93.28576       45.94416       12.64888
H         91.14373       48.42508       14.59498
H         92.28118       48.82987       13.26973
H         91.19367       47.39598       13.11130
N         93.46237       43.76649       15.56338
C         94.51016       42.90993       16.11161
C         95.61261       42.73499       15.08515
O         95.51642       43.29842       14.00376
C         93.96850       41.56445       16.67144
C         93.52381       40.53614       15.65685
N         92.38086       40.68220       14.95921
O         94.18584       39.51927       15.50788
H         92.87929       43.39907       14.79958
H         94.98514       43.41635       16.97962
H         93.15204       41.74471       17.40307
H         94.79698       41.09960       17.24623
H         91.77683       41.49778       15.10660
H         92.07756       39.94465       14.30561
N         96.72035       42.00253       15.37401
C         97.86280       41.87597       14.47537
C         97.46326       41.32640       13.11860
O         97.87330       41.88844       12.11372
C         98.94593       40.99639       15.13184
C        100.20648       40.91262       14.30363
C        100.91275       42.07931       13.95853
C        100.69502       39.66636       13.87872
C        102.07950       42.00037       13.19562
C        101.86870       39.58942       13.12266
C        102.56379       40.75787       12.77721
O        103.69648       40.69938       12.04884
H         96.76914       41.53512       16.29237
H         98.29259       42.89013       14.32557
H         98.52967       39.98142       15.32034
H         99.21562       41.43965       16.11514
H        100.56334       43.05303       14.27614
H        100.17298       38.75336       14.13708
H        102.60909       42.90763       12.93313
H        102.23708       38.62163       12.80743
H        104.07028       39.85995       11.74572
N         96.64185       40.24754       13.01719
C         96.19533       39.70434       11.73726
C         95.47524       40.76416       10.91372
O         95.86580       40.98578        9.77521
C         95.26457       38.48417       11.94693
C         95.94650       37.30066       12.66270
C         97.12197       36.76837       11.89158
O         98.35074       36.77848       12.44295
O         96.96896       36.32033       10.76631
H         96.30347       39.82061       13.89047
H         97.08001       39.35936       11.15693
H         94.90486       38.12687       10.95603
H         94.37436       38.79217       12.53798
H         95.20775       36.48017       12.78718
H         96.27897       37.60320       13.67690
N         94.41673       41.45999       11.42230
C         93.66342       42.44280       10.63406
C         94.51584       43.63503       10.21327
O         94.10055       44.35687        9.31738
C         92.43209       42.97235       11.40763
C         91.47141       41.84481       11.81113
C         90.31767       42.33895       12.63087
O         89.18722       41.98554       12.35358
O         90.52130       43.10049       13.72117
H         94.13861       41.25896       12.39316
H         93.30563       41.92674        9.71452
H         91.87965       43.70710       10.78193
H         92.79222       43.49405       12.32229
H         92.00678       41.11286       12.42700
H         91.09755       41.31029       10.91344
N         95.68989       43.92935       10.83993
C         96.53811       45.04981       10.49282
H         97.55459       44.67362       10.25127
H         96.15558       45.61857        9.62070
H         96.61075       45.73670       11.36257
H         95.99941       43.35185       11.62535
Ca        87.80703       42.60761       15.33549
O         90.13994       42.53116       17.44185
H         90.16246       42.81603       18.38797
H         90.43443       41.58844       17.47592
O         89.55955       40.13108       15.58535
H         88.80399       39.84519       15.02124
H         89.59033       39.46048       16.31139

Ca 1.0



