%chk=holoCaM-CaMKII.loop1.water2.frame314.chk
%nprocshared=20
%mem=10GB
%nosave
#b3lyp/svp scf=(tight,noincore,xqc) Test 
#IOP(5/87=12) Density=Current Pop=(MK,readradii) iop(6/33=2) iop(6/42=6)

holoCaM-CaMKII.loop1.water2.frame314 

   0  1 
C         63.86407       24.54809       40.94387
C         64.60590       23.26661       40.70482
O         64.14571       22.44661       39.92452
H         62.85409       24.32439       41.34389
H         64.39598       25.19276       41.67685
H         63.77329       25.10660       39.98977
N         65.77868       23.03175       41.34925
C         66.57408       21.82457       41.16654
C         65.76406       20.60827       41.60770
O         65.40718       20.53949       42.77561
C         67.88268       22.00901       41.97714
C         68.91765       20.94466       41.85261
O         68.73183       19.94978       41.18248
O         70.09244       21.11483       42.48048
H         66.12798       23.76127       41.99161
H         66.84277       21.73914       40.09016
H         67.64368       22.12990       43.05522
H         68.36825       22.94238       41.62350
N         65.42470       19.61732       40.72292
C         64.61338       18.45834       41.09478
C         65.46389       17.21777       41.34211
O         64.89407       16.18636       41.67208
C         63.55226       18.10825       40.02003
C         62.69878       19.28106       39.51955
C         61.46223       18.74631       38.76891
C         60.67394       19.82185       38.00338
N         60.28386       20.95251       38.84498
H         65.76101       19.67530       39.75619
H         64.06902       18.68141       42.03827
H         62.88591       17.34105       40.47539
H         64.03652       17.64865       39.12776
H         63.32676       19.90852       38.84934
H         62.34799       19.89517       40.37508
H         60.79445       18.25468       39.51228
H         61.76445       17.97778       38.02362
H         59.76099       19.34244       37.58147
H         61.28660       20.19396       37.15343
H         61.13190       21.48858       39.13902
H         59.67597       21.59336       38.28522
H         59.75457       20.62276       39.68369
N         66.82359       17.23661       41.22732
C         67.66820       16.06671       41.44149
C         68.50590       16.19320       42.70286
O         69.20840       15.24308       43.02154
C         68.61883       15.89256       40.23821
C         67.88359       15.75855       38.93695
O         68.08408       16.65626       37.95469
O         67.11399       14.82989       38.75599
H         67.29354       18.11254       40.98312
H         67.04382       15.15451       41.55974
H         69.25375       14.99164       40.38117
H         69.29213       16.77841       40.18231
N         68.51700       17.32788       43.46090
C         69.37724       17.49098       44.61900
C         70.82698       17.33319       44.22639
O         71.52943       16.53212       44.82561
H         67.93146       18.13439       43.20172
H         69.10176       16.76182       45.41160
H         69.23338       18.51611       45.02611
N         71.32475       18.06422       43.19318
C         72.70570       18.00715       42.72950
C         73.38782       19.36917       42.85547
O         74.51297       19.50792       42.39587
C         72.76147       17.42334       41.29412
C         72.06159       18.19554       40.20668
O         72.07661       17.76390       39.06523
O         71.41975       19.34610       40.45909
H         70.67748       18.69358       42.70219
H         73.29856       17.30198       43.35215
H         72.31300       16.40586       41.32294
H         73.82735       17.31416       40.99869
N         72.79534       20.40397       43.52651
C         73.41637       21.70170       43.73574
C         73.50545       22.57771       42.50027
O         73.99619       23.68823       42.64134
H         71.89026       20.25722       43.99296
H         74.42513       21.55937       44.18100
H         72.80216       22.26673       44.47084
N         73.06322       22.17571       41.27138
C         73.14487       23.01436       40.07514
C         71.77133       23.18405       39.42610
O         70.86273       22.42744       39.73654
C         74.16631       22.41180       39.08046
C         75.57706       22.32163       39.68831
O         73.75036       21.14751       38.62710
H         72.67398       21.23638       41.16651
H         73.50096       24.02976       40.35392
H         74.23551       23.08109       38.19612
H         73.87886       20.48988       39.35951
H         76.28597       21.91237       38.93804
H         75.92855       23.32687       40.00128
H         75.58736       21.65033       40.57447
N         71.54051       24.21478       38.55370
C         70.23636       24.48224       37.93583
C         70.40527       24.62911       36.42312
O         71.30489       25.33690       35.99391
C         69.57635       25.76578       38.52915
C         69.58521       25.72922       40.08132
C         68.12585       25.88328       37.99958
C         68.97860       26.97257       40.73778
H         72.30705       24.88024       38.37227
H         69.53205       23.65263       38.16052
H         70.15944       26.65665       38.20739
H         70.63778       25.66889       40.43140
H         69.04408       24.83246       40.44664
H         68.10131       25.91597       36.89276
H         67.51813       25.01371       38.33795
H         67.63410       26.81253       38.34609
H         69.49512       27.88921       40.38239
H         67.89265       27.05389       40.52970
H         69.09704       26.90240       41.83955
N         69.53032       24.03460       35.56094
C         69.61667       24.11853       34.10351
C         68.41686       24.85022       33.52181
O         67.53124       25.26156       34.25169
C         69.71864       22.69136       33.49993
C         71.05845       22.03072       33.84238
O         68.62298       21.89603       33.89112
H         68.73839       23.51865       35.95227
H         70.51272       24.69924       33.79400
H         69.70368       22.73755       32.39208
H         68.84348       21.45309       34.75106
H         71.19543       21.97108       34.93903
H         71.09610       21.01020       33.40468
H         71.89094       22.62849       33.41436
N         68.35628       25.05700       32.17606
C         67.26231       25.72713       31.47630
C         65.95195       24.97778       31.67593
O         64.97182       25.59746       32.06493
C         67.61845       25.84220       29.96879
C         66.52147       26.52502       29.14932
O         68.79524       26.60134       29.82697
H         69.14833       24.71656       31.61307
H         67.15203       26.76426       31.86707
H         67.75910       24.82144       29.53750
H         69.55252       25.97007       29.71189
H         65.57882       25.94038       29.18350
H         66.33233       27.55008       29.53255
H         66.84326       26.59518       28.08796
N         65.87364       23.63624       31.44500
C         64.65214       22.84474       31.60624
C         64.03599       23.04755       32.97965
O         62.85599       23.35858       33.06273
C         64.97222       21.34713       31.37543
C         63.73567       20.44128       31.51407
C         64.08350       18.97572       31.22265
C         62.85461       18.07270       31.40250
N         63.17731       16.67890       31.09799
H         66.73933       23.14996       31.16248
H         63.91013       23.15957       30.83850
H         65.74565       21.01337       32.10326
H         65.38791       21.23229       30.35021
H         62.94974       20.77805       30.80343
H         63.33739       20.51388       32.54971
H         64.88483       18.63784       31.91623
H         64.45504       18.88956       30.17805
H         62.03783       18.41328       30.72800
H         62.49437       18.14410       32.45336
H         63.48087       16.59090       30.10091
H         63.93705       16.33681       31.73018
H         62.32525       16.09052       31.24416
N         64.79101       22.89554       34.09839
C         64.27350       23.04091       35.45877
C         63.63331       24.40937       35.63484
O         62.48003       24.46895       36.03865
C         65.40036       22.77885       36.48959
C         65.91269       21.32332       36.36417
C         67.09254       21.00136       37.22884
O         68.08078       21.70839       37.21599
O         67.15705       19.82607       37.86889
H         65.79023       22.68936       33.95852
H         63.48663       22.27360       35.64028
H         65.01731       22.93951       37.51883
H         66.22990       23.49803       36.31097
H         66.26000       21.13426       35.33257
H         65.09099       20.60322       36.57113
N         64.29488       25.54400       35.27605
C         63.70714       26.86863       35.32546
H         62.67802       26.86343       35.74199
H         64.33968       27.53296       35.94870
H         63.65911       27.28469       34.29565
H         65.24583       25.46712       34.90071
Ca        69.20780       19.24710       38.59967
O         69.10476       18.40254       35.62869
H         68.85458       18.30563       34.67638
H         69.63030       17.58852       35.83397
O         71.33516       20.02402       36.56902
H         72.19272       20.35904       36.92418
H         71.56795       19.67493       35.67272

Ca 1.0



