%chk=holoCaM-CaMKII.loop1.water2.frame277.chk
%nprocshared=20
%mem=10GB
%nosave
#b3lyp/svp scf=(tight,noincore,xqc) Test 
#IOP(5/87=12) Density=Current Pop=(MK,readradii) iop(6/33=2) iop(6/42=6)

holoCaM-CaMKII.loop1.water2.frame277 

   0  1 
C         53.35418       24.85075       71.94861
C         54.00314       25.51519       70.77128
O         54.09952       24.88538       69.73065
H         52.32152       24.54462       71.68029
H         53.94076       23.95198       72.23284
H         53.30631       25.53184       72.82401
N         54.44377       26.80249       70.86156
C         55.08156       27.53962       69.77441
C         56.56044       27.15328       69.64651
O         57.42121       27.95917       69.97407
C         54.90285       29.05898       70.03851
C         55.32428       29.93322       68.89207
O         55.76001       29.45223       67.86102
O         55.18387       31.26626       68.99320
H         54.25973       27.30782       71.74219
H         54.54075       27.33942       68.82992
H         55.45687       29.35573       70.95374
H         53.83043       29.27312       70.20804
N         56.93248       25.92446       69.18974
C         58.32390       25.48910       69.08964
C         59.06912       26.29675       68.04441
O         60.07079       26.91176       68.38360
C         58.40246       23.97451       68.79805
C         57.83568       23.17820       69.99103
C         57.96143       21.66379       69.79669
C         57.53266       20.87198       71.04798
N         56.12451       21.07617       71.39612
H         56.20298       25.26459       68.90249
H         58.82573       25.64229       70.07195
H         59.47082       23.69189       68.67110
H         57.85819       23.72190       67.86103
H         56.76878       23.44018       70.14114
H         58.40326       23.46172       70.90450
H         59.02740       21.41779       69.59792
H         57.35856       21.34417       68.91929
H         58.17301       21.15916       71.91223
H         57.70035       19.79116       70.84678
H         55.88025       20.44795       72.19560
H         55.95532       22.06071       71.70183
H         55.51191       20.84127       70.58217
N         58.61920       26.37165       66.75856
C         59.27158       27.19292       65.72991
C         59.36916       28.68087       66.09729
O         60.10871       29.39019       65.42929
C         58.61738       26.98475       64.34245
C         57.11251       27.01229       64.38420
O         56.48416       26.02801       64.02655
O         56.45317       28.07594       64.87385
H         57.77894       25.82509       66.51869
H         60.32644       26.85036       65.64383
H         58.91822       25.98294       63.96430
H         59.00042       27.73753       63.61895
N         58.72239       29.20811       67.17326
C         58.96880       30.53877       67.70611
C         58.67709       31.65474       66.73771
O         59.56133       32.46148       66.48635
H         58.06574       28.62109       67.69406
H         60.02704       30.60191       68.04340
H         58.32720       30.68714       68.60242
N         57.44234       31.78383       66.18360
C         57.05012       32.89737       65.33073
C         55.85655       33.63733       65.93768
O         55.05920       34.20593       65.20410
C         56.80380       32.39425       63.89257
C         55.82397       31.25770       63.81476
O         54.57461       31.39586       64.28872
O         56.16174       30.19993       63.31054
H         56.73298       31.07058       66.38950
H         57.86734       33.64825       65.25609
H         57.77452       32.04418       63.47459
H         56.44898       33.23206       63.25711
N         55.72532       33.73768       67.29308
C         54.68799       34.50454       67.97075
C         53.27140       33.96407       67.86569
O         52.40395       34.56019       68.48814
H         56.43994       33.30092       67.89350
H         54.71403       35.55520       67.60970
H         54.92892       34.51427       69.05583
N         52.93702       32.87749       67.11404
C         51.57385       32.35985       67.01998
C         51.57466       30.83170       67.24624
O         52.16246       30.24693       66.12130
C         50.94521       32.75125       65.64516
C         50.33123       34.14636       65.69566
O         51.90745       32.74274       64.62065
H         53.65990       32.40583       66.55552
H         50.93382       32.77722       67.82745
H         50.09322       32.07690       65.39150
H         51.98876       31.81684       64.29485
H         51.09258       34.90793       65.95902
H         49.89348       34.39566       64.70494
H         49.51215       34.16475       66.44699
N         50.18908       30.34686       67.40971
C         50.04005       28.89729       67.64759
C         48.90607       28.44329       66.75937
O         47.75063       28.69706       67.07432
C         49.74806       28.54409       69.15117
C         50.90390       29.00483       70.06767
C         49.48709       27.02998       69.33557
C         50.59230       28.88053       71.56372
H         49.65059       30.90196       68.11466
H         50.95853       28.36278       67.32770
H         48.82581       29.08938       69.45364
H         51.11558       30.07816       69.88424
H         51.81136       28.41449       69.82709
H         50.38908       26.43843       69.07203
H         49.19623       26.79223       70.37835
H         48.64060       26.68780       68.70849
H         50.43456       27.82839       71.87291
H         51.44758       29.27357       72.15240
H         49.68883       29.47636       71.81707
N         49.17373       27.80613       65.58783
C         48.11976       27.31479       64.70771
C         47.41999       26.12619       65.34160
O         47.81984       25.67992       66.41066
C         48.69579       26.89512       63.33782
C         49.25237       28.09088       62.54658
O         49.65346       25.88721       63.52697
H         50.16068       27.69516       65.31461
H         47.37825       28.12676       64.53150
H         47.89119       26.47918       62.69599
H         50.55040       26.30060       63.58138
H         49.64245       27.74673       61.56470
H         48.44984       28.83695       62.36317
H         50.06972       28.58254       63.10441
N         46.35626       25.55243       64.72394
C         45.64846       24.40457       65.27145
C         46.57553       23.19216       65.33447
O         46.65192       22.56018       66.37650
C         44.38449       24.09194       64.43491
C         43.47068       23.10509       65.17033
O         43.65767       25.27810       64.22655
H         46.02472       25.96564       63.83739
H         45.29406       24.67428       66.29343
H         44.70564       23.66421       63.45446
H         43.26785       25.22664       63.31428
H         42.56761       22.89824       64.55916
H         43.99077       22.14850       65.37927
H         43.13811       23.55018       66.13535
N         47.33707       22.84408       64.24968
C         48.23464       21.68560       64.21182
C         49.17680       21.64334       65.40567
O         49.26979       20.60449       66.04661
C         49.01997       21.59914       62.86390
C         50.03289       22.73513       62.61093
C         50.82830       22.55500       61.30358
C         51.95576       23.60088       61.14262
N         51.45589       24.94416       60.84545
H         47.27807       23.43902       63.41074
H         47.60803       20.76716       64.25567
H         48.29058       21.57243       62.02587
H         49.57876       20.63702       62.85826
H         50.77832       22.72943       63.42741
H         49.49077       23.69392       62.59295
H         50.15607       22.57379       60.41892
H         51.31960       21.55939       61.34941
H         52.61911       23.29265       60.30502
H         52.57551       23.61878       62.06778
H         52.24898       25.62352       60.89335
H         51.04680       24.97101       59.88448
H         50.73200       25.23874       61.52543
N         49.88689       22.74156       65.77751
C         50.82724       22.75364       66.89418
C         50.11888       22.40173       68.18746
O         50.51274       21.43455       68.82395
C         51.51126       24.12878       66.98940
C         52.41830       24.37316       65.76899
C         52.90861       25.77755       65.77215
O         52.62178       26.51899       64.84759
O         53.58255       26.27491       66.81787
H         49.73749       23.61130       65.24314
H         51.62563       21.99702       66.71707
H         52.14188       24.18283       67.90412
H         50.72916       24.91860       67.05895
H         51.85637       24.22308       64.82564
H         53.27456       23.66680       65.77987
N         49.04644       23.12199       68.61876
C         48.29978       22.79548       69.81772
H         47.24839       22.56894       69.54127
H         48.71306       21.91232       70.34982
H         48.31322       23.66126       70.51099
H         48.72344       23.92532       68.06301
Ca        53.44169       28.49235       66.69952
O         52.44389       29.64760       63.05393
H         53.19229       29.92990       62.47179
H         51.67900       30.19334       62.74393
O         53.82429       27.32686       62.27010
H         54.41784       26.86854       62.91285
H         54.27263       27.21815       61.39537

Ca 1.0



