%chk=holoCaM-CaMKII.loop1.water2.frame296.chk
%nprocshared=20
%mem=10GB
%nosave
#b3lyp/svp scf=(tight,noincore,xqc) Test 
#IOP(5/87=12) Density=Current Pop=(MK,readradii) iop(6/33=2) iop(6/42=6)

holoCaM-CaMKII.loop1.water2.frame296 

   0  1 
C         55.07360       31.30637       81.71117
C         56.54047       31.14276       81.48747
O         57.29731       31.22039       82.44626
H         54.55757       30.36676       81.42215
H         54.86706       31.51069       82.78399
H         54.69346       32.14822       81.09875
N         57.02051       30.88055       80.23810
C         58.42980       30.61849       80.01423
C         59.25722       31.85680       80.35950
O         59.11235       32.87658       79.69902
C         58.69739       30.14975       78.56338
C         60.06663       29.55777       78.46288
O         60.77717       29.43003       79.59124
O         60.50361       29.15038       77.40193
H         56.35691       30.80232       79.45223
H         58.68167       29.77135       80.69448
H         58.58062       31.00011       77.85717
H         57.98278       29.34744       78.28155
N         60.07890       31.85057       81.44851
C         60.65856       33.06937       82.00852
C         61.95249       33.50572       81.32342
O         62.25424       34.69049       81.35907
C         60.89137       32.88357       83.53172
C         60.95385       34.19680       84.33627
C         59.56191       34.85538       84.43272
C         59.57718       36.13526       85.27104
N         58.22849       36.69733       85.36713
H         60.08735       30.99428       82.01404
H         59.89169       33.85527       81.86880
H         61.82276       32.29366       83.67716
H         60.06059       32.28980       83.97443
H         61.70557       34.89008       83.90464
H         61.27300       33.94568       85.37180
H         58.85861       34.13191       84.90315
H         59.17410       35.11814       83.42992
H         60.25421       36.87806       84.79440
H         59.95523       35.91242       86.29314
H         57.58950       36.01827       85.84219
H         58.25999       37.57948       85.92645
H         57.85767       36.91455       84.41310
N         62.80250       32.59661       80.75427
C         64.08314       32.95469       80.12893
C         64.12536       32.61585       78.63823
O         65.13910       32.89204       78.01052
C         65.29674       32.35007       80.89379
C         65.37397       30.84988       81.00239
O         64.36257       30.07536       80.60966
O         66.35595       30.32665       81.50089
H         62.52586       31.60654       80.77193
H         64.23310       34.05596       80.17838
H         65.31877       32.76130       81.92531
H         66.22186       32.69039       80.37891
N         63.05150       32.09143       77.98263
C         63.01904       31.88907       76.54427
C         63.93932       30.79502       76.05750
O         64.74531       31.04437       75.17240
H         62.18034       31.89607       78.49473
H         63.23569       32.84929       76.02501
H         61.98921       31.58396       76.25692
N         63.79972       29.52843       76.53570
C         64.44465       28.35689       75.94930
C         63.38140       27.39132       75.40929
O         63.71036       26.25593       75.09466
C         65.42296       27.69610       76.94562
C         64.82117       27.27368       78.24789
O         65.34318       27.73167       79.40134
O         63.89695       26.48112       78.27577
H         63.13113       29.36813       77.30365
H         65.07790       28.63499       75.07786
H         66.24587       28.41205       77.16107
H         65.87631       26.80194       76.46624
N         62.10182       27.81658       75.17692
C         61.06044       27.00325       74.57048
C         60.35438       26.04799       75.51507
O         59.40773       25.42132       75.06051
H         61.86763       28.80782       75.32091
H         61.45952       26.47178       73.67885
H         60.26748       27.69357       74.20781
N         60.72351       25.87171       76.81844
C         60.00926       24.97442       77.73251
C         59.64259       25.65185       79.04600
O         60.08973       26.75063       79.32936
C         60.85265       23.69867       78.00588
C         60.72700       22.70724       76.85160
O         62.20849       24.00899       78.18808
H         61.55224       26.36537       77.17611
H         59.03426       24.66597       77.29450
H         60.47511       23.15298       78.89950
H         62.25417       24.64754       78.94012
H         59.66605       22.38691       76.75507
H         61.06201       23.15502       75.89416
H         61.33726       21.80443       77.06670
N         58.78734       25.00976       79.89383
C         58.34616       25.50765       81.19304
C         58.72860       24.46396       82.23647
O         58.41195       23.29704       82.04667
C         56.79991       25.73444       81.18975
C         56.38095       26.73050       80.07535
C         56.32992       26.25022       82.56920
C         54.86122       26.84743       79.90698
H         58.40385       24.10084       79.59066
H         58.82308       26.48421       81.43441
H         56.30757       24.75755       80.98548
H         56.77453       26.37737       79.09940
H         56.81059       27.73641       80.27780
H         56.79841       27.23153       82.80197
H         55.22950       26.36098       82.61817
H         56.59351       25.53330       83.36731
H         54.63218       27.53299       79.06459
H         54.42576       25.85098       79.67738
H         54.36989       27.25999       80.81030
N         59.35062       24.82266       83.39420
C         59.68046       23.87416       84.45597
C         58.64063       23.95991       85.55450
O         57.72744       24.76196       85.45788
C         61.10385       24.13674       85.01760
C         62.19526       23.98502       83.95064
O         61.17355       25.39583       85.64016
H         59.49506       25.82033       83.57588
H         59.64127       22.83284       84.06779
H         61.33444       23.38105       85.79689
H         61.39918       26.06885       84.95055
H         62.03601       24.71701       83.13372
H         63.19053       24.17504       84.40780
H         62.18382       22.95874       83.52998
N         58.69795       23.12909       86.62815
C         57.71044       23.16428       87.70230
C         57.70811       24.52969       88.37983
O         56.65841       25.15474       88.44093
C         57.94931       22.01736       88.71734
C         57.74690       20.64277       88.05621
O         59.24164       22.10084       89.26033
H         59.46511       22.44296       86.67219
H         56.69662       22.99455       87.27119
H         57.19171       22.12288       89.52853
H         59.25946       21.50549       90.05447
H         58.47436       20.47061       87.23601
H         57.87831       19.83637       88.80762
H         56.71976       20.56413       87.63976
N         58.85504       25.06588       88.88373
C         58.91594       26.37037       89.54111
C         58.43572       27.50304       88.64345
O         57.61637       28.28259       89.11032
C         60.33582       26.66358       90.06840
C         60.67832       25.75465       91.26961
C         62.00458       26.12593       91.94827
C         63.23524       25.78959       91.09683
N         64.46156       26.19371       91.78463
H         59.72635       24.52306       88.78865
H         58.24595       26.36377       90.43129
H         60.35578       27.71115       90.44301
H         61.07716       26.57302       89.24601
H         60.68193       24.68083       90.98388
H         59.88361       25.90014       92.03483
H         62.08097       25.55352       92.89906
H         61.99322       27.20875       92.20217
H         63.18652       26.30970       90.11766
H         63.25900       24.69181       90.91316
H         64.46697       27.23128       91.91915
H         64.53255       25.71926       92.71426
H         65.28694       25.92481       91.20234
N         58.86235       27.65363       87.35347
C         58.38193       28.73893       86.48631
C         56.86169       28.76654       86.47005
O         56.28851       29.78661       86.82868
C         58.94122       28.62411       85.04511
C         60.46332       28.85602       85.00166
C         61.03684       28.74698       83.61182
O         61.68340       29.66947       83.14672
O         60.90662       27.61782       82.89411
H         59.51418       26.95207       86.97427
H         58.72452       29.71402       86.90045
H         58.46445       29.39948       84.40511
H         58.67714       27.63017       84.63021
H         60.97698       28.12418       85.64908
H         60.68526       29.86927       85.40198
N         56.14130       27.66679       86.12927
C         54.69740       27.63790       86.20546
H         54.26216       28.39340       85.51937
H         54.32333       26.63086       85.92336
H         54.37263       27.85075       87.24780
H         56.63105       26.81265       85.84632
Ca        62.77953       28.67267       79.99381
O         64.08035       27.74085       83.28869
H         63.75921       28.04027       84.17614
H         64.67206       28.47199       82.98091
O         63.43283       25.41297       81.07513
H         64.26308       25.43279       81.61204
H         63.22738       24.44863       80.98286

Ca 1.0



