%chk=holoCaM.loop4.water2.frame124.chk
%nprocshared=20
%mem=10GB
%nosave
#b3lyp/svp scf=(tight,noincore,xqc) Test 
#IOP(5/87=12) Density=Current Pop=(MK,readradii) iop(6/33=2) iop(6/42=6)

holoCaM.loop4.water2.frame124 

   -3  1 
C         91.71452       94.72560       15.90497
C         90.93123       93.46176       16.08444
O         91.31349       92.44946       15.51641
H         92.58371       94.55465       15.23249
H         91.07639       95.52997       15.49254
H         92.11119       95.03695       16.89676
N         89.86225       93.43311       16.93303
C         89.24956       92.18838       17.37437
C         87.72776       92.15962       17.22909
O         87.06637       93.06129       17.72398
C         89.64584       91.99922       18.85044
C         89.27289       90.62759       19.28645
O         89.78236       89.59530       18.58096
O         88.49851       90.46232       20.21205
H         89.57879       94.30790       17.40110
H         89.67774       91.33482       16.80398
H         89.17201       92.77854       19.48832
H         90.74867       92.08852       18.95072
N         87.11045       91.08599       16.64001
C         85.65878       90.91276       16.53638
C         85.15346       89.71253       17.36998
O         83.96038       89.67624       17.63593
C         85.24819       90.73144       15.03035
C         85.86020       91.79947       14.08496
C         83.71895       90.65844       14.82112
C         85.44454       93.24080       14.37794
H         87.70383       90.34661       16.25868
H         85.15977       91.81832       16.94360
H         85.66629       89.75895       14.68331
H         85.56771       91.55791       13.03815
H         86.96822       91.73905       14.12825
H         83.27446       89.78506       15.33620
H         83.21644       91.57739       15.18718
H         83.48369       90.52868       13.74258
H         85.92660       93.91264       13.63661
H         84.34679       93.36952       14.29301
H         85.77640       93.54693       15.38906
N         85.95400       88.65879       17.73676
C         85.42952       87.42320       18.34620
C         86.11701       86.97728       19.64797
O         85.67825       85.98583       20.21519
C         85.44133       86.29482       17.28853
C         86.76998       86.08847       16.61123
O         87.86764       85.78684       17.32074
O         86.85820       86.20779       15.39962
H         86.94364       88.67319       17.46850
H         84.36305       87.55831       18.62866
H         84.70138       86.55938       16.50142
H         85.10654       85.34120       17.75020
N         87.15347       87.65695       20.20714
C         87.76408       87.31749       21.49256
C         88.51667       85.99244       21.55994
O         88.96458       85.65650       22.64748
H         87.47559       88.49805       19.73305
H         86.96423       87.31149       22.26439
H         88.48945       88.11344       21.77009
N         88.69913       85.18335       20.47707
C         89.33671       83.86709       20.55210
C         90.79897       83.87837       21.00496
O         91.30769       82.80251       21.28853
C         89.18971       83.09863       19.21250
C         89.86268       83.73469       18.02079
O         90.49492       84.91558       18.11995
O         89.80466       83.18414       16.93351
H         88.30928       85.48031       19.58327
H         88.77089       83.28811       21.31551
H         88.10778       83.00298       18.97575
H         89.60344       82.07528       19.33764
N         91.54119       85.02117       21.08759
C         92.91246       85.05334       21.58702
C         93.93883       85.40258       20.52586
O         95.10253       85.52865       20.88217
H         91.12639       85.91293       20.79218
H         93.21633       84.07053       22.01040
H         92.96029       85.79404       22.41290
N         93.61400       85.48991       19.20278
C         94.59301       85.67339       18.13388
C         94.19016       86.81642       17.20796
O         93.12375       87.38509       17.39189
C         94.68199       84.36036       17.32377
C         95.01291       83.15101       18.21882
C         95.14703       81.88193       17.41930
N         94.10435       81.39374       16.70671
O         96.20887       81.27759       17.42701
H         92.64515       85.32382       18.92047
H         95.59692       85.89520       18.55895
H         95.46930       84.45702       16.54580
H         93.70773       84.18091       16.81811
H         94.20966       82.99727       18.97194
H         95.96436       83.35030       18.75903
H         93.19578       81.87922       16.69422
H         94.20453       80.52082       16.16767
N         94.99410       87.18597       16.16608
C         94.64753       88.21621       15.18484
C         94.59510       87.58060       13.80332
O         95.55709       86.93969       13.40061
C         95.66091       89.39180       15.22091
C         95.29432       90.46201       14.17232
C         95.68979       90.05186       16.60895
H         95.89868       86.70309       16.04920
H         93.65002       88.64883       15.40857
H         96.68036       89.00934       14.99424
H         94.27375       90.86303       14.35968
H         96.01785       91.30361       14.20572
H         95.32238       90.04109       13.14538
H         94.69401       90.46544       16.86955
H         95.98726       89.32175       17.38938
H         96.42325       90.88616       16.62192
N         93.49133       87.74135       13.01870
C         93.30487       87.11942       11.71273
C         93.19250       88.18104       10.61989
O         93.09715       89.36223       10.92012
C         92.03614       86.23655       11.81691
C         91.61537       85.51658       10.56199
N         92.42177       84.60639        9.97165
O         90.51272       85.74258       10.08613
H         92.72872       88.33524       13.36736
H         94.18402       86.48518       11.46517
H         91.19181       86.88213       12.14556
H         92.20261       85.47420       12.60936
H         93.35160       84.39317       10.35847
H         92.11048       84.11402        9.12162
N         93.26664       87.81252        9.30960
C         93.19813       88.73647        8.17765
C         91.84173       89.41007        8.08978
O         91.78282       90.62361        7.95204
C         93.58676       88.00556        6.86055
C         92.71741       86.82929        6.45770
C         91.45556       87.02235        5.86729
C         93.18405       85.51601        6.64538
C         90.66835       85.92636        5.49941
C         92.39552       84.42210        6.27898
C         91.13544       84.62125        5.70871
O         90.38744       83.55400        5.36302
H         93.42948       86.81754        9.10758
H         93.97601       89.52339        8.30445
H         94.62417       87.63766        7.02252
H         93.64416       88.72060        6.01129
H         91.08000       88.02099        5.68638
H         94.15507       85.33558        7.08933
H         89.69707       86.09293        5.05066
H         92.76526       83.41754        6.44194
H         89.51056       83.64656        4.96419
N         90.70544       88.66907        8.18830
C         89.35326       89.20417        8.07403
C         89.12737       90.30926        9.08721
O         88.64082       91.37082        8.72346
C         88.34387       88.05003        8.28136
C         86.89231       88.45652        7.99872
C         85.97752       87.27656        8.17190
O         85.87189       86.67248        9.37129
O         85.32646       86.85880        7.22742
H         90.81326       87.65934        8.36304
H         89.20655       89.60462        7.04573
H         88.43500       87.65516        9.31824
H         88.60181       87.22954        7.57457
H         86.81972       88.83030        6.95323
H         86.56934       89.26427        8.68839
N         89.49658       90.12047       10.38209
C         89.29651       91.10346       11.44185
C         90.00153       92.40768       11.10584
O         89.34368       93.43769       11.04655
C         89.79686       90.55380       12.80138
C         89.08375       89.24312       13.19615
C         89.56928       88.69940       14.50544
O         90.74862       88.45167       14.67981
O         88.69112       88.40640       15.47322
H         89.95504       89.22745       10.60712
H         88.20538       91.30224       11.54391
H         89.60869       91.31786       13.58795
H         90.89252       90.36901       12.74730
H         89.27144       88.45143       12.44782
H         87.98645       89.41174       13.24679
N         91.33885       92.43599       10.85258
C         92.03796       93.65842       10.51728
H         93.11146       93.44175       10.32910
H         91.60344       94.10855        9.59896
H         91.96337       94.38203       11.35649
H         91.87895       91.56143       10.88410
Ca        89.11924       87.48733       18.14160
O         92.05256       89.88512       17.22336
H         92.34271       90.35975       16.40777
H         92.39453       90.43257       17.97345
O         91.78142       88.19661       19.94686
H         91.43715       88.37956       20.85687
H         92.68675       88.59512       19.93460

Ca 1.0



