%chk=holoCaM-CaMKII.loop4.water2.frame171.chk
%nprocshared=20
%mem=10GB
%nosave
#b3lyp/svp scf=(tight,noincore,xqc) Test 
#IOP(5/87=12) Density=Current Pop=(MK,readradii) iop(6/33=2) iop(6/42=6)

holoCaM-CaMKII.loop4.water2.frame171 

   -3  1 
C         86.78698       51.20637        9.53890
C         85.55509       50.39505        9.80822
O         85.41244       49.30881        9.26525
H         87.46915       50.67558        8.84261
H         86.49494       52.17775        9.08588
H         87.32274       51.39997       10.49245
N         84.61397       50.87566       10.66222
C         83.38031       50.16746       10.97793
C         82.50898       50.06113        9.73142
O         82.15373       51.09563        9.18256
C         82.65029       50.93041       12.10038
C         81.38384       50.26014       12.51277
O         80.21846       50.91715       12.38903
O         81.40441       49.13087       12.97180
H         84.79883       51.78487       11.11668
H         83.63654       49.15582       11.36488
H         82.41979       51.96437       11.76050
H         83.31229       50.99964       12.99180
N         82.14443       48.84280        9.22172
C         81.36021       48.68964        7.98992
C         80.01317       47.98817        8.21818
O         79.23053       47.95263        7.27984
C         82.23951       47.99771        6.89040
C         81.63151       48.00252        5.46074
C         82.59104       46.54666        7.26368
C         81.37009       49.40214        4.90208
H         82.46811       47.99830        9.71234
H         81.10763       49.70183        7.61876
H         83.19416       48.56780        6.82687
H         80.69708       47.40704        5.41721
H         82.35809       47.51561        4.77266
H         83.12963       46.50136        8.22600
H         81.67497       45.92241        7.33286
H         83.26123       46.10259        6.49627
H         81.00943       49.31717        3.85505
H         80.58895       49.93279        5.48142
H         82.30686       49.99909        4.90464
N         79.64753       47.44135        9.42005
C         78.33000       46.83655        9.65900
C         77.53009       47.61053       10.71142
O         76.42110       47.20254       11.02594
C         78.46527       45.33038        9.97816
C         79.06655       44.99766       11.31007
O         79.37592       45.95884       12.19564
O         79.31531       43.83298       11.57951
H         80.30885       47.46811       10.20468
H         77.72489       46.87207        8.72819
H         79.08892       44.87321        9.17645
H         77.46520       44.84842        9.94320
N         77.99760       48.78228       11.23357
C         77.22304       49.66226       12.09239
C         77.07360       49.20284       13.52530
O         75.95594       49.18145       14.01961
H         78.90502       49.15058       10.91813
H         76.23748       49.87422       11.62383
H         77.75520       50.63344       12.15047
N         78.17071       48.90632       14.27940
C         78.13770       48.69947       15.72767
C         79.11105       49.64002       16.46199
O         79.24705       49.51065       17.67093
C         78.34308       47.20873       16.07355
C         79.60317       46.57897       15.55695
O         79.53865       45.60272       14.82989
O         80.80480       47.02741       15.94402
H         79.08446       48.85803       13.81034
H         77.12909       48.93800       16.13261
H         77.47856       46.64690       15.65500
H         78.31152       47.08598       17.17771
N         79.76673       50.65368       15.81601
C         80.63852       51.62613       16.46675
C         82.01130       51.11026       16.86350
O         82.80857       51.92040       17.31249
H         79.57849       50.81970       14.82079
H         80.12107       52.07882       17.34085
H         80.83279       52.44392       15.73813
N         82.37186       49.80292       16.72827
C         83.70244       49.28866       17.04620
C         84.29178       48.53996       15.85794
O         83.63451       48.37767       14.84066
C         83.62915       48.39937       18.30487
C         83.37486       49.26257       19.55349
C         83.29247       48.43664       20.80801
N         82.27527       47.56487       20.99336
O         84.13979       48.57310       21.67827
H         81.67732       49.13336       16.39596
H         84.40735       50.12332       17.25568
H         84.59845       47.87960       18.46463
H         82.84056       47.62695       18.17332
H         82.43559       49.84557       19.45355
H         84.22119       49.98026       19.64929
H         81.53946       47.45623       20.28053
H         82.21218       47.01296       21.86156
N         85.58768       48.11616       15.92007
C         86.31350       47.50087       14.81416
C         86.87419       46.15220       15.25348
O         87.56355       46.10166       16.26160
C         87.42613       48.48934       14.35244
C         88.37466       47.87601       13.31084
C         86.78525       49.75464       13.74555
H         86.12254       48.30812       16.78013
H         85.65395       47.33686       13.94807
H         88.04253       48.78167       15.23144
H         87.81847       47.57158       12.40255
H         89.14862       48.61900       13.01945
H         88.90518       46.99664       13.73074
H         86.17989       49.49024       12.84962
H         86.12273       50.26290       14.47601
H         87.56668       50.47992       13.43468
N         86.66717       45.02781       14.49426
C         87.24897       43.72034       14.81369
C         88.39571       43.41547       13.86037
O         88.71309       44.25688       13.04208
C         86.18607       42.58899       14.85054
C         85.78326       42.00451       13.50971
N         85.07341       42.70448       12.59912
O         86.09396       40.84911       13.25670
H         86.15237       45.12560       13.61160
H         87.68655       43.75885       15.83479
H         85.29340       42.90792       15.42954
H         86.64455       41.75208       15.42225
H         84.75865       43.66239       12.78712
H         84.81273       42.26475       11.70303
N         89.09101       42.24556       13.93370
C         90.27184       41.96114       13.11683
C         89.98298       41.96637       11.62087
O         90.70040       42.63264       10.88791
C         90.88331       40.60500       13.52647
C         92.23774       40.38640       12.89176
C         93.29626       41.26950       13.17410
C         92.46373       39.30226       12.02854
C         94.55372       41.07579       12.60102
C         93.72685       39.10828       11.45757
C         94.77584       39.99588       11.74310
O         95.99885       39.82065       11.20392
H         88.80096       41.55000       14.63611
H         91.02269       42.74985       13.33785
H         90.17461       39.78798       13.26412
H         91.02964       40.58417       14.62794
H         93.15262       42.10912       13.84215
H         91.66600       38.60737       11.79782
H         95.35678       41.76572       12.82872
H         93.88986       38.26780       10.79526
H         96.19956       39.08287       10.61116
N         88.94490       41.25058       11.10325
C         88.60918       41.20110        9.67556
C         88.50910       42.59867        9.09430
O         89.13967       42.86793        8.08138
C         87.28638       40.42948        9.45698
C         87.44202       38.93352        9.78581
C         86.14348       38.19476        9.63762
O         85.56712       38.16361        8.56204
O         85.61757       37.54447       10.69372
H         88.34021       40.75294       11.77260
H         89.41083       40.67167        9.11349
H         86.98299       40.51086        8.38877
H         86.48333       40.88440       10.07952
H         87.80059       38.79828       10.82633
H         88.19294       38.48404        9.09989
N         87.78770       43.55721        9.72766
C         87.72046       44.94496        9.27381
C         89.11092       45.54970        9.18826
O         89.48615       46.02093        8.12346
C         86.81079       45.74703       10.21956
C         85.37261       45.23707       10.06804
C         84.39570       45.86531       10.99297
O         83.10674       45.58118       10.81133
O         84.73682       46.57283       11.92184
H         87.30495       43.28782       10.59892
H         87.27064       44.98709        8.25540
H         86.82334       46.82587        9.94549
H         87.16582       45.64092       11.26672
H         85.29474       44.14576       10.23848
H         85.05109       45.43760        9.02655
N         89.95022       45.52578       10.25475
C         91.30761       46.01625       10.19395
H         91.86965       45.46932        9.40656
H         91.31161       47.10343        9.97502
H         91.81279       45.84016       11.16821
H         89.63135       45.10939       11.13054
Ca        81.53787       46.36352       12.14999
O         81.95828       43.61760       13.55955
H         81.98722       43.16764       12.67822
H         82.17947       42.90497       14.21029
O         83.10968       44.94146       16.00938
H         83.09895       45.83201       16.43968
H         82.92033       44.30871       16.74687

Ca 1.0



