%chk=holoCaM-CaMKII.loop2.water2.frame360.chk
%nprocshared=20
%mem=10GB
%nosave
#b3lyp/svp scf=(tight,noincore,xqc) Test 
#IOP(5/87=12) Density=Current Pop=(MK,readradii) iop(6/33=2) iop(6/42=6)

holoCaM-CaMKII.loop2.water2.frame360 

   -2  1 
C         47.92826       64.91729       43.38386
C         48.98837       65.36271       44.35373
O         49.98955       64.67971       44.49607
H         47.08576       65.64124       43.34114
H         48.36754       64.84972       42.36499
H         47.52922       63.92583       43.67681
N         48.84898       66.53647       45.02408
C         49.88833       67.11935       45.86452
C         50.13402       66.34251       47.15784
O         49.18593       66.14343       47.90529
C         49.46924       68.55635       46.25228
C         50.58577       69.32154       46.89148
O         51.71073       68.85596       46.91940
O         50.36052       70.55141       47.38791
H         47.99341       67.08776       44.85198
H         50.81768       67.18881       45.25582
H         48.60033       68.50998       46.94441
H         49.16354       69.13094       45.35379
N         51.39831       65.96523       47.52909
C         51.70872       65.37267       48.83119
C         52.72727       66.17819       49.65601
O         52.90889       65.81726       50.81112
C         52.24068       63.95052       48.63028
H         52.17210       66.12616       46.87384
H         50.78240       65.30409       49.44225
H         53.18784       63.97127       48.04864
H         52.43598       63.46337       49.61047
H         51.49588       63.33735       48.08074
N         53.47117       67.21435       49.14763
C         54.52949       67.89477       49.91304
C         54.42655       69.42728       49.93603
O         55.26827       70.05143       50.56770
C         55.91190       67.44167       49.39210
C         56.22822       67.81460       47.96596
O         55.36159       68.51447       47.21177
O         57.29764       67.47769       47.48469
H         53.36116       67.46267       48.15948
H         54.49084       67.57088       50.97626
H         55.96798       66.33478       49.48365
H         56.70171       67.87277       50.04556
N         53.42454       70.10330       49.30902
C         53.24222       71.54736       49.37427
C         54.29156       72.40920       48.68631
O         54.15530       73.62014       48.79681
H         52.69368       69.56953       48.84166
H         53.18732       71.84174       50.44475
H         52.26649       71.80466       48.90853
N         55.35701       71.91613       47.98376
C         56.38927       72.80769       47.44413
C         55.90219       73.77590       46.35665
O         56.64785       74.69248       46.04006
C         57.64392       72.03627       46.96803
C         57.46188       71.12492       45.78021
N         58.54911       70.54039       45.22706
O         56.35670       70.91900       45.30511
H         55.48128       70.90008       47.90235
H         56.73252       73.43326       48.29855
H         58.05163       71.43279       47.80756
H         58.41297       72.78930       46.68989
H         59.48934       70.70461       45.61340
H         58.46468       69.94544       44.39506
N         54.69660       73.63887       45.73052
C         54.18127       74.58137       44.74112
C         54.11162       74.01298       43.33323
O         53.59104       74.69713       42.46345
H         54.10357       72.83616       45.96056
H         54.80811       75.49761       44.68392
H         53.16771       74.89595       45.06872
N         54.68825       72.82069       43.01120
C         54.78306       72.28626       41.65321
C         54.27195       70.85124       41.59880
O         53.83519       70.32687       42.61354
C         56.27203       72.34778       41.20652
C         56.75836       73.79478       41.09148
O         57.09731       71.66202       42.11457
H         55.16952       72.29423       43.74734
H         54.18324       72.88727       40.93397
H         56.40174       71.91929       40.18848
H         56.98002       70.69211       41.94065
H         56.14205       74.34584       40.34838
H         56.70017       74.31782       42.06864
H         57.81426       73.80990       40.74725
N         54.36651       70.13217       40.44184
C         54.05129       68.71256       40.34528
C         55.37091       67.96459       40.27842
O         56.18057       68.26186       39.40973
C         53.15731       68.40513       39.10293
C         51.84810       69.23509       39.14243
C         52.85028       66.89268       39.03774
C         50.92920       69.00033       37.93794
H         54.77313       70.57980       39.60705
H         53.50101       68.37172       41.24748
H         53.71729       68.68545       38.18240
H         52.11090       70.31462       39.14941
H         51.27847       69.00882       40.06809
H         52.28631       66.62738       38.12202
H         53.78494       66.30105       38.99333
H         52.26566       66.57623       39.92734
H         50.53868       67.96218       37.92170
H         50.05112       69.67617       38.00437
H         51.46779       69.20701       36.98901
N         55.63921       66.95626       41.15693
C         56.87111       66.17850       41.13146
C         56.65224       64.87924       40.37856
O         55.55912       64.64495       39.89147
C         57.41241       65.96350       42.56346
C         57.90944       67.25828       43.15543
O         57.07340       68.15177       43.71947
O         59.10782       67.48935       43.16237
H         54.90462       66.66542       41.81605
H         57.65442       66.70807       40.54462
H         58.28956       65.28806       42.50014
H         56.67537       65.46335       43.23069
N         57.69039       64.02404       40.16287
C         57.59742       62.84772       39.30603
C         56.54270       61.84306       39.77309
O         55.68263       61.53010       38.96124
C         58.98545       62.19349       39.14053
C         58.97900       61.11224       38.08930
C         59.18596       61.44242       36.73825
C         58.77032       59.76989       38.44516
C         59.18812       60.44365       35.76035
C         58.76905       58.77411       37.46270
C         58.97954       59.11037       36.12209
H         58.61017       64.25934       40.56501
H         57.30838       63.20429       38.28970
H         59.38153       61.80258       40.09614
H         59.71457       62.97193       38.82293
H         59.34943       62.47192       36.44344
H         58.60587       59.49670       39.48006
H         59.35219       60.70362       34.72228
H         58.60598       57.74106       37.74037
H         58.98116       58.33841       35.36340
N         56.50952       61.27803       41.02536
C         55.53949       60.25649       41.40831
C         54.11686       60.78471       41.54546
O         53.22092       59.97938       41.75783
C         56.09690       59.71356       42.72695
C         56.73102       60.95074       43.32709
C         57.42235       61.56795       42.11276
H         55.52562       59.43179       40.66133
H         55.36874       59.17337       43.36931
H         56.93392       59.01733       42.48917
H         55.90467       61.62717       43.64556
H         57.40181       60.77582       44.19473
H         57.55906       62.65153       42.30441
H         58.39214       61.06824       41.91297
N         53.82369       62.10692       41.41943
C         52.46377       62.62674       41.40078
C         51.94113       62.56898       39.98211
O         50.88300       62.00087       39.75426
C         52.44287       64.07864       41.89334
C         52.92784       64.19663       43.34403
C         53.01074       65.62747       43.76922
O         53.60932       65.92887       44.92412
O         52.68885       66.53321       43.01688
H         54.58862       62.77791       41.27518
H         51.80238       62.04579       42.08312
H         51.40839       64.48326       41.82664
H         53.10471       64.69327       41.24358
H         53.95666       63.78264       43.41655
H         52.27525       63.62672       44.03699
N         52.65494       63.13219       38.96787
C         52.21755       63.11727       37.59260
H         51.27194       63.68882       37.49294
H         52.99098       63.59395       36.95121
H         52.07088       62.07144       37.25125
H         53.55674       63.57654       39.17183
Ca        55.10059       67.52368       44.54082
O         51.22290       69.13379       43.35922
H         50.34360       69.57400       43.25336
H         51.42277       68.77054       42.46182
O         52.84607       70.82114       45.22616
H         53.27387       70.71372       46.11295
H         52.11454       71.47154       45.37678

Ca 1.0



