%chk=holoCaM-CaMKII.loop4.water1.frame467.chk
%nprocshared=20
%mem=10GB
%nosave
#b3lyp/svp scf=(tight,noincore,xqc) Test 
#IOP(5/87=12) Density=Current Pop=(MK,readradii) iop(6/33=2) iop(6/42=6)

holoCaM-CaMKII.loop4.water1.frame467 

   -3  1 
C         86.89047       51.19086       63.38108
C         87.38238       49.77369       63.33123
O         87.35995       49.10564       64.35104
H         85.83024       51.20847       63.70659
H         87.50690       51.76863       64.10158
H         86.96444       51.68301       62.38781
N         87.85146       49.25003       62.16777
C         88.38442       47.89634       62.03584
C         89.60711       47.71371       62.93316
O         90.52627       48.51483       62.83432
C         88.72439       47.65621       60.55362
C         89.28819       46.29673       60.30696
O         90.38642       46.19643       59.79308
O         88.59217       45.18966       60.63001
H         87.83208       49.85415       61.33032
H         87.60064       47.16503       62.31629
H         89.45180       48.42331       60.20518
H         87.79866       47.76364       59.94742
N         89.68329       46.67527       63.82777
C         90.78707       46.51179       64.78452
C         91.67884       45.31560       64.45042
O         92.80088       45.28446       64.93646
C         90.22674       46.37678       66.24332
C         89.25668       47.53808       66.57178
C         91.35823       46.29083       67.29251
C         88.60643       47.44018       67.95473
H         88.91692       45.98563       63.84752
H         91.44117       47.40973       64.72907
H         89.64068       45.43085       66.29791
H         88.42475       47.50517       65.84327
H         89.77847       48.51496       66.48063
H         91.98014       47.21048       67.27223
H         90.95577       46.14202       68.31217
H         92.00240       45.40657       67.13202
H         88.08331       46.46680       68.06919
H         89.35323       47.55865       68.76504
H         87.86494       48.25764       68.07118
N         91.27397       44.30275       63.63519
C         92.11129       43.13921       63.33425
C         92.57709       43.13772       61.88416
O         93.24964       42.19971       61.47957
C         91.41552       41.83237       63.78547
C         90.07876       41.52718       63.16674
O         89.42588       40.40904       63.53756
O         89.56826       42.27455       62.35087
H         90.34266       44.35559       63.20486
H         93.05544       43.17194       63.92053
H         91.26567       41.88812       64.88592
H         92.09594       40.97667       63.58312
N         92.36368       44.21758       61.08170
C         92.94450       44.37547       59.76268
C         92.41578       43.40159       58.74660
O         93.21683       42.76900       58.07322
H         91.84063       45.02514       61.44418
H         94.05306       44.31798       59.82843
H         92.69998       45.39241       59.39151
N         91.07488       43.27051       58.54109
C         90.50957       42.49009       57.44575
C         89.64058       43.34034       56.51075
O         89.29718       42.83206       55.45251
C         89.76582       41.24607       57.97090
C         88.75353       41.54626       59.03386
O         88.81321       40.90349       60.21298
O         87.87032       42.35679       58.83815
H         90.43240       43.75841       59.17931
H         91.32847       42.10743       56.79786
H         90.50626       40.54082       58.40705
H         89.27053       40.73079       57.12034
N         89.25710       44.62369       56.79902
C         88.55069       45.48248       55.85447
C         87.11561       45.78609       56.24057
O         86.48463       46.54305       55.51624
H         89.48613       45.04226       57.70660
H         88.51396       45.02315       54.84381
H         89.12172       46.43143       55.76183
N         86.50455       45.19060       57.30405
C         85.08354       45.35065       57.61682
C         84.88422       45.82374       59.04802
O         85.85788       45.93338       59.78229
C         84.32858       44.02592       57.25394
C         84.96988       42.66498       57.66141
C         84.92251       42.26953       59.14856
N         83.58464       41.84580       59.54084
O         85.32769       43.35165       59.91780
H         87.04744       44.54012       57.88610
H         84.63142       46.14777       56.98646
H         84.34210       43.99870       56.14178
H         83.26154       44.07115       57.55739
H         86.01529       42.65005       57.30385
H         84.46899       41.85232       57.09310
H         83.34937       40.98727       58.98962
H         83.62927       41.53792       60.53782
N         83.63821       46.14391       59.51108
C         83.37700       46.51041       60.90169
C         82.29585       45.59302       61.45183
O         81.15303       45.68807       61.02413
C         82.97973       48.00756       61.02587
C         82.69805       48.39821       62.48888
C         84.09637       48.91253       60.47940
H         82.84204       46.11885       58.85527
H         84.29801       46.37380       61.50452
H         82.05827       48.19195       60.43029
H         82.40803       49.46869       62.55242
H         81.85963       47.80425       62.90538
H         83.59852       48.23852       63.11975
H         85.03800       48.76250       61.05164
H         84.29139       48.69584       59.40863
H         83.79956       49.98014       60.55900
N         82.60130       44.65280       62.38863
C         81.61285       43.74038       62.96713
C         80.76827       44.50256       63.99608
O         81.07085       45.65529       64.26925
C         82.39794       42.53945       63.58400
C         81.61920       41.28223       63.93143
N         81.84950       40.12548       63.26537
O         80.81159       41.27828       64.84203
H         83.58969       44.55171       62.66445
H         80.98438       43.33826       62.14181
H         82.98281       42.87873       64.46720
H         83.13550       42.23266       62.81205
H         82.53888       40.07382       62.50219
H         81.33466       39.26879       63.51946
N         79.71003       43.92610       64.63028
C         79.03921       44.53574       65.78229
C         80.03205       44.67678       66.94041
O         80.01715       45.68217       67.63362
C         77.86216       43.64501       66.23554
C         77.04192       44.28482       67.33418
C         76.29359       45.44795       67.07726
C         77.00368       43.71803       68.61894
C         75.51919       46.02944       68.08643
C         76.23476       44.30599       69.62887
C         75.48707       45.46274       69.36447
O         74.73497       46.03501       70.32653
H         79.39187       43.00306       64.31106
H         78.63177       45.52938       65.49016
H         78.27151       42.66599       66.56992
H         77.18214       43.44662       65.37861
H         76.29895       45.89875       66.09272
H         77.57251       42.82440       68.84193
H         74.94060       46.92010       67.87378
H         76.21865       43.86007       70.61530
H         74.68220       45.67324       71.22278
N         80.93413       43.68084       67.18386
C         81.96448       43.69230       68.22465
C         82.97903       44.83198       68.06184
O         83.71659       45.08726       69.00306
C         82.68204       42.31583       68.18821
C         83.76561       42.08610       69.24810
C         84.34154       40.70462       69.09986
O         85.52677       40.55580       68.84761
O         83.55098       39.62252       69.23761
H         80.87527       42.84969       66.58754
H         81.44830       43.81746       69.20212
H         83.14347       42.18566       67.18228
H         81.90406       41.52941       68.31480
H         83.33312       42.19428       70.26475
H         84.58596       42.82198       69.12080
N         83.07257       45.56174       66.91359
C         84.00086       46.67516       66.71681
C         83.25363       47.99630       66.54227
O         83.91206       49.02577       66.48713
C         84.84063       46.42178       65.45027
C         85.70276       45.14450       65.50366
C         86.23332       44.78636       64.13810
O         86.87846       43.62314       63.93206
O         85.97818       45.48582       63.17116
H         82.46772       45.31362       66.12780
H         84.66743       46.79002       67.59940
H         85.50498       47.28770       65.23606
H         84.11277       46.32812       64.61231
H         85.06799       44.29065       65.81816
H         86.53232       45.26482       66.23302
N         81.89363       48.05285       66.43494
C         81.13776       49.27715       66.28497
H         80.40605       49.35320       67.11744
H         81.78214       50.17904       66.29590
H         80.57946       49.24536       65.32544
H         81.34058       47.19491       66.43963
Ca        86.48607       42.91695       61.82004
O         86.01877       40.57594       63.40385
H         85.34318       41.24996       63.66840
H         86.22923       40.09473       64.24199

Ca 1.0



