%chk=holoCaM.loop3.water3.frame328.chk
%nprocshared=20
%mem=10GB
%nosave
#b3lyp/svp scf=(tight,noincore,xqc) Test 
#IOP(5/87=12) Density=Current Pop=(MK,readradii) iop(6/33=2) iop(6/42=6)

holoCaM.loop3.water3.frame328 

   0  1 
C          6.14306       22.96878        9.58492
C          7.04433       22.20783       10.50064
O          6.73183       21.06458       10.80663
H          5.14122       23.06586       10.05054
H          6.54815       23.97832        9.36917
H          6.05160       22.40915        8.62956
N          8.20647       22.75741       10.95740
C          9.12843       21.98299       11.76418
C          8.49199       21.63060       13.10330
O          8.15165       22.52121       13.86957
C         10.48298       22.69955       11.94447
C         11.51159       21.73271       12.45279
O         12.65605       22.08601       12.63077
O         11.15786       20.45287       12.63154
H          8.46696       23.71182       10.66622
H          9.33601       21.06189       11.17474
H         10.38012       23.57181       12.62506
H         10.84760       23.05551       10.95735
N          8.25664       20.32657       13.40743
C          7.50945       19.87544       14.57587
C          8.21073       20.24505       15.88157
O          7.56943       20.86718       16.71688
C          7.21538       18.36749       14.41518
C          6.09325       17.83405       15.31844
C          5.73556       16.39685       14.89749
C          4.52216       15.84969       15.65867
N          4.20128       14.49289       15.21102
H          8.55652       19.61961       12.71929
H          6.51508       20.37694       14.54601
H          8.13988       17.76934       14.52378
H          6.84180       18.23361       13.37399
H          5.19119       18.47041       15.17656
H          6.39384       17.87161       16.38722
H          6.61351       15.73522       15.06067
H          5.48278       16.38765       13.81287
H          3.64326       16.50836       15.47505
H          4.73454       15.83995       16.74964
H          5.00672       13.85258       15.39845
H          3.36375       14.14580       15.73169
H          3.98409       14.49071       14.18719
N          9.53424       19.96332       16.10094
C         10.25071       20.38070       17.31561
C         11.25832       21.50516       17.05974
O         11.90902       21.92148       18.00943
C         10.92184       19.18111       18.02859
C         12.05852       18.52532       17.29143
O         12.74598       17.53689       17.89304
O         12.38197       18.88142       16.17256
H         10.06168       19.48773       15.35469
H          9.52929       20.79782       18.05219
H         10.15640       18.41122       18.26127
H         11.33497       19.54676       18.99501
N         11.39745       22.09922       15.83842
C         12.24778       23.26349       15.62362
C         13.74597       22.99763       15.62175
O         14.48184       23.97099       15.53894
H         10.79835       21.79850       15.05972
H         12.00432       24.02213       16.40025
H         12.00086       23.72070       14.64261
N         14.28883       21.74399       15.68821
C         15.74039       21.51877       15.72950
C         16.47913       21.95229       14.45813
O         17.70234       21.96904       14.46754
C         16.07177       20.03873       16.03070
C         15.79397       19.10824       14.86867
N         16.79947       18.39610       14.30635
O         14.66071       18.99738       14.42949
H         13.65732       20.93893       15.76017
H         16.12230       22.12048       16.58374
H         15.50068       19.70378       16.92328
H         17.15135       19.97521       16.28663
H         17.76544       18.47278       14.65648
H         16.61615       17.76459       13.51404
N         15.80299       22.26389       13.31973
C         16.40921       22.67484       12.06885
C         16.11748       21.71153       10.93206
O         16.43710       22.06605        9.80723
H         14.78835       22.20556       13.32624
H         17.51176       22.78938       12.15213
H         15.98560       23.66876       11.80705
N         15.58754       20.46099       11.13578
C         15.38671       19.50381       10.04455
C         13.96739       18.95786       10.02289
O         13.21122       19.19136       10.94866
C         16.39671       18.33839       10.14546
C         17.82239       18.82387       10.00331
C         18.44693       19.56277       11.02545
C         18.53914       18.54997        8.82637
C         19.75048       20.03790       10.86098
C         19.84141       19.02858        8.66279
C         20.44959       19.77975        9.67816
O         21.70061       20.25851        9.52727
H         15.38793       20.14326       12.09358
H         15.54938       20.00618        9.06607
H         16.17575       17.63245        9.31566
H         16.27904       17.77118       11.09324
H         17.92968       19.77659       11.95118
H         18.08397       17.98225        8.02436
H         20.21455       20.61306       11.65248
H         20.37279       18.82075        7.74292
H         22.21147       20.11411        8.71800
N         13.53225       18.25551        8.93313
C         12.17565       17.73111        8.77193
C         12.22956       16.34211        8.14533
O         12.89686       16.16574        7.13644
C         11.31696       18.71335        7.91085
C         11.12338       20.03489        8.71062
C          9.95208       18.09310        7.54578
C         10.11939       21.02281        8.11686
H         14.17232       18.17485        8.12905
H         11.66025       17.64728        9.75528
H         11.83468       18.92323        6.94848
H         12.10441       20.54717        8.79872
H         10.76152       19.79677        9.73451
H          9.38022       18.76339        6.87313
H         10.07882       17.15140        6.97499
H          9.35459       17.90375        8.45483
H         10.09905       21.94090        8.73999
H         10.39293       21.29008        7.07699
H          9.09293       20.59786        8.14343
N         11.44283       15.33955        8.63908
C         11.34469       14.01305        8.03432
C          9.99256       13.83058        7.35530
O          9.15143       14.71440        7.42588
C         11.56430       12.94213        9.11752
O         10.56064       13.03438       10.09666
H         10.83045       15.54546        9.43956
H         12.11944       13.88846        7.24763
H         12.57347       13.09715        9.56548
H         11.53893       11.92267        8.67757
H         10.98604       12.86559       10.97686
N          9.72906       12.68963        6.65343
C          8.45162       12.42637        5.99191
C          7.31594       12.38446        6.99253
O          6.23578       12.86835        6.68492
C          8.50241       11.09917        5.23214
H         10.47128       11.97685        6.58760
H          8.25253       13.22306        5.23972
H          8.69518       10.25396        5.92626
H          7.53732       10.92467        4.70829
H          9.30896       11.13416        4.46914
N          7.50831       11.85327        8.23208
C          6.49743       11.87446        9.28147
C          6.07506       13.29866        9.58277
O          4.88782       13.59163        9.57264
C          7.06285       11.24144       10.56258
H          8.43442       11.45480        8.45333
H          5.61292       11.27773        8.96709
H          7.36145       10.18983       10.36926
H          7.95642       11.79737       10.92272
H          6.29686       11.24861       11.36724
N          7.01938       14.23651        9.86711
C          6.70713       15.61035       10.25326
C          6.01781       16.39030        9.13575
O          5.47821       17.45052        9.42032
C          7.99709       16.33626       10.69774
C          8.67233       15.62314       11.88911
C          9.99440       16.23098       12.23568
O         10.03962       17.47067       12.73235
O         11.02491       15.58639       12.12534
H          8.00268       13.93634        9.82671
H          6.01271       15.56738       11.12192
H          7.77527       17.39169       10.97319
H          8.69248       16.33562        9.83710
H          8.86186       14.56016       11.65580
H          8.00813       15.66111       12.77728
N          5.99815       15.93804        7.84812
C          5.30211       16.60158        6.76411
H          4.74222       17.49778        7.10224
H          6.03129       16.90539        5.98434
H          4.57713       15.89047        6.31231
H          6.50896       15.08435        7.60386
Ca        11.94671       18.49747       13.30144
O         13.27373       15.81951       15.23617
H         12.66873       15.53046       15.96441
H         13.84729       16.51225       15.64953
O         14.01552       16.29538       12.31608
H         13.95064       15.51868       11.70580
H         14.90019       16.19718       12.74862
O         10.28159       16.56350       15.42698
H          9.49891       16.45516       16.02172
H         10.32835       15.71283       14.92327

Ca 1.0



