%chk=holoCaM-CaMKII.loop2.water2.frame298.chk
%nprocshared=20
%mem=10GB
%nosave
#b3lyp/svp scf=(tight,noincore,xqc) Test 
#IOP(5/87=12) Density=Current Pop=(MK,readradii) iop(6/33=2) iop(6/42=6)

holoCaM-CaMKII.loop2.water2.frame298 

   -2  1 
C         52.58686        4.31428       62.91865
C         53.89296        3.58884       62.75626
O         54.84609        4.15614       62.24499
H         51.77284        3.75710       62.41039
H         52.34572        4.38321       64.00294
H         52.64154        5.34394       62.50818
N         54.00596        2.32050       63.22693
C         55.25678        1.57229       63.27945
C         55.82580        1.22907       61.89824
O         55.11432        0.65591       61.08558
C         55.01942        0.27136       64.07697
C         56.29270       -0.39934       64.48134
O         57.36389        0.14450       64.28362
O         56.25250       -1.57384       65.13656
H         53.16490        1.90229       63.65655
H         55.98326        2.18979       63.85294
H         54.39289       -0.42238       63.47641
H         54.48534        0.49987       65.02427
N         57.13219        1.50573       61.60031
C         57.78611        1.20405       60.32578
C         59.01494        0.28131       60.47637
O         59.74038        0.13347       59.50219
C         58.20795        2.53826       59.69350
H         57.70435        1.97047       62.31676
H         57.08320        0.71919       59.61355
H         57.31630        3.18622       59.54918
H         58.93507        3.07210       60.34226
H         58.67009        2.37287       58.69617
N         59.30495       -0.39023       61.63594
C         60.53382       -1.18642       61.83390
C         60.55984       -2.11734       63.07749
O         61.57022       -2.78776       63.24342
C         61.75986       -0.23613       61.86976
C         61.50945        0.88928       62.82443
O         61.45701        2.03465       62.40347
O         61.17700        0.64658       64.10189
H         58.63771       -0.29943       62.39515
H         60.65285       -1.88527       60.97698
H         61.91839        0.20358       60.86180
H         62.68933       -0.78127       62.13806
N         59.51734       -2.28367       63.94721
C         59.50331       -3.26363       65.03381
C         60.43571       -3.01230       66.21528
O         60.41934       -3.83071       67.12376
H         58.63925       -1.79189       63.79270
H         59.71901       -4.26710       64.60771
H         58.47494       -3.29760       65.45561
N         61.26702       -1.93582       66.29766
C         62.19616       -1.71163       67.41417
C         61.52964       -1.36350       68.75541
O         62.25131       -1.17288       69.72547
C         63.21071       -0.60762       67.03258
C         62.61899        0.76603       66.82173
N         63.42449        1.78351       66.44652
O         61.42454        0.97045       66.98300
H         61.28994       -1.28579       65.50693
H         62.79185       -2.64126       67.55248
H         63.71989       -0.91484       66.09296
H         63.98576       -0.53021       67.82574
H         64.43261        1.63176       66.30028
H         63.04100        2.72451       66.29863
N         60.18007       -1.24633       68.89394
C         59.51254       -0.86979       70.13071
C         59.81866        0.55537       70.55121
O         60.18940        0.76501       71.69265
H         59.57466       -1.44512       68.09300
H         59.76395       -1.59061       70.93945
H         58.41501       -0.92251       69.96143
N         59.59696        1.58152       69.67868
C         59.75225        3.01810       69.96744
C         59.13230        3.86463       68.83883
O         58.72615        3.33582       67.81705
C         61.24830        3.46329       70.12446
C         61.96776        3.01233       71.39501
O         62.00239        3.06104       69.01154
H         59.23105        1.30288       68.76361
H         59.17527        3.26373       70.88525
H         61.28466        4.57241       70.21540
H         61.83565        3.72159       68.29047
H         61.38862        3.31875       72.29323
H         62.16818        1.92726       71.40246
H         62.96185        3.50777       71.44521
N         59.07736        5.22387       68.96358
C         58.64476        6.12177       67.89866
C         59.86760        6.84775       67.38050
O         60.60080        7.45216       68.14925
C         57.50877        7.07916       68.38120
C         56.18136        6.27369       68.43979
C         57.35747        8.29946       67.44196
C         54.97209        7.06437       68.94299
H         59.42462        5.65951       69.82953
H         58.23695        5.55708       67.03832
H         57.77030        7.47968       69.38541
H         56.31443        5.39481       69.10536
H         55.93793        5.89825       67.41921
H         58.29437        8.89467       67.41671
H         57.10646        7.98134       66.41134
H         56.58193        9.00121       67.80536
H         54.08108        6.40121       68.94685
H         55.15297        7.43172       69.97348
H         54.73193        7.91863       68.27780
N         60.09722        6.85479       66.03697
C         61.20397        7.53776       65.39205
C         60.67203        8.79365       64.73963
O         59.48834        9.06902       64.86129
C         61.85332        6.60156       64.35260
C         62.33753        5.32309       64.97405
O         61.46254        4.48852       65.56628
O         63.51906        5.02240       64.92380
H         59.40760        6.41227       65.41517
H         61.96532        7.84949       66.14042
H         62.70851        7.11806       63.86703
H         61.11216        6.34382       63.56400
N         61.50262        9.65171       64.08888
C         61.02495       10.92660       63.57515
C         60.02526       10.78227       62.42643
O         58.97997       11.41119       62.52037
C         62.18697       11.88613       63.25856
C         61.68791       13.30985       63.37627
C         61.84093       13.98640       64.60288
C         61.00288       13.94193       62.32711
C         61.31720       15.26752       64.77706
C         60.48934       15.23339       62.50296
C         60.64283       15.89253       63.72746
H         62.50937        9.43398       64.04439
H         60.50220       11.40928       64.43604
H         62.72099       11.67284       62.30875
H         62.93480       11.74711       64.07077
H         62.34090       13.50946       65.43783
H         60.86187       13.43537       61.38107
H         61.42562       15.76870       65.73089
H         59.96115       15.72085       61.69464
H         60.23347       16.88444       63.86786
N         60.21276        9.96894       61.33188
C         59.23062        9.82939       60.25886
C         57.96967        9.07145       60.68139
O         57.08590        8.92038       59.85002
C         60.00854        9.10861       59.15414
C         60.92310        8.21191       59.95439
C         61.38085        9.14593       61.07608
H         58.91819       10.82334       59.86797
H         59.38737        8.61030       58.37841
H         60.66386        9.85317       58.64648
H         60.28768        7.41008       60.39743
H         61.74827        7.73364       59.38535
H         61.68116        8.50655       61.92655
H         62.21722        9.80626       60.76166
N         57.78828        8.62442       61.95713
C         56.54811        8.03431       62.44840
C         55.77505        9.05473       63.26763
O         54.55531        8.97490       63.29991
C         56.84391        6.83934       63.36475
C         57.71872        5.76895       62.71642
C         58.06917        4.68875       63.69515
O         58.98408        3.78615       63.33967
O         57.58299        4.64340       64.81334
H         58.53685        8.75763       62.64082
H         55.90882        7.69781       61.60170
H         55.88730        6.38639       63.70967
H         57.39384        7.21757       64.25281
H         58.67339        6.23502       62.39347
H         57.22455        5.32325       61.82697
N         56.42227       10.02095       63.98364
C         55.76124       11.00883       64.80447
H         54.65988       10.88694       64.80848
H         56.13695       10.91975       65.84569
H         56.01144       12.02134       64.42280
H         57.44406       10.07926       63.96325
Ca        59.74386        2.21654       64.73088
O         58.24542        0.22466       66.82618
H         58.73859       -0.43348       66.27541
H         57.55315       -0.30514       67.29597
O         56.41882        2.39723       66.43326
H         55.87925        1.83866       67.04637
H         55.94516        3.26516       66.40290

Ca 1.0



