%chk=holoCaM.loop2.water2.frame460.chk
%nprocshared=20
%mem=10GB
%nosave
#b3lyp/svp scf=(tight,noincore,xqc) Test 
#IOP(5/87=12) Density=Current Pop=(MK,readradii) iop(6/33=2) iop(6/42=6)

holoCaM.loop2.water2.frame460 

   -2  1 
C         19.36283       94.71281       48.94976
C         19.91681       95.97152       48.37057
O         21.11484       96.03096       48.12689
H         18.59029       94.30204       48.26704
H         20.16893       93.95724       49.07298
H         18.91475       94.93258       49.93907
N         19.09188       97.01967       48.08299
C         19.60496       98.22326       47.45740
C         20.42535       99.01576       48.46800
O         19.85963       99.64141       49.35337
C         18.46587       99.05085       46.80898
C         18.98866      100.06056       45.82604
O         18.22235      100.64051       45.08047
O         20.31460      100.17411       45.65865
H         18.07768       96.91706       48.23938
H         20.24524       97.87469       46.61217
H         17.80491       99.51854       47.56903
H         17.85407       98.34434       46.20445
N         21.78345       98.96770       48.41874
C         22.67819       99.65199       49.34315
C         22.52011      101.16011       49.27836
O         22.34449      101.76486       50.32699
C         24.13311       99.26205       49.04784
H         22.20495       98.35472       47.71383
H         22.46474       99.30714       50.38004
H         24.25004       98.15975       49.14128
H         24.43196       99.56456       48.02222
H         24.81676       99.74104       49.78114
N         22.54313      101.83533       48.08939
C         22.38797      103.28934       48.00838
C         20.94618      103.71534       47.73647
O         20.69475      104.91229       47.70467
C         23.41237      103.90968       47.03003
C         23.21680      103.56213       45.57918
O         22.20860      102.76863       45.17931
O         23.97920      104.02461       44.74597
H         22.60709      101.29109       47.21674
H         22.63045      103.73222       48.99969
H         24.43368      103.59327       47.33569
H         23.35937      105.01693       47.11642
N         19.93213      102.80554       47.62520
C         18.52571      103.18166       47.58626
C         18.05932      103.91626       46.34342
O         16.91737      104.35485       46.35666
H         20.14150      101.80268       47.69400
H         18.32593      103.82428       48.47256
H         17.89761      102.27134       47.69266
N         18.84752      104.11615       45.24605
C         18.41292      104.95470       44.12409
C         17.21209      104.41332       43.33494
O         16.70662      105.14073       42.49205
C         19.59271      105.27073       43.17914
C         20.01547      104.10878       42.31220
N         20.00060      104.22434       40.96310
O         20.38362      103.06423       42.82416
H         19.80554      103.74254       45.24996
H         18.11339      105.92811       44.57362
H         20.45975      105.61412       43.78507
H         19.29583      106.11774       42.52420
H         19.70155      105.10004       40.50919
H         20.30053      103.44103       40.36591
N         16.70794      103.16236       43.54151
C         15.53311      102.62477       42.86676
C         15.82043      101.36465       42.06913
O         14.86508      100.69937       41.69249
H         17.15133      102.55488       44.23455
H         15.04850      103.36423       42.19338
H         14.79859      102.36853       43.66013
N         17.08713      100.99866       41.71739
C         17.40169       99.79339       40.94344
C         18.53050       99.01787       41.60363
O         19.06226       99.47595       42.60360
C         17.80147      100.17874       39.49399
C         16.61552      100.73169       38.69197
O         18.87959      101.08074       39.48330
H         17.86782      101.62547       41.96539
H         16.52061       99.11570       40.88749
H         18.12278       99.26771       38.94647
H         18.52966      101.97691       39.72761
H         15.80823       99.97000       38.63906
H         16.21076      101.65497       39.15564
H         16.94360      100.96509       37.65667
N         18.96317       97.83229       41.08219
C         20.12115       97.10714       41.59751
C         21.19492       97.00019       40.51630
O         20.88456       96.77259       39.35504
C         19.74212       95.74744       42.25750
C         19.10170       94.73344       41.27932
C         18.85046       96.01130       43.48940
C         18.80760       93.37981       41.93694
H         18.47089       97.43742       40.26629
H         20.58778       97.68216       42.42682
H         20.68439       95.29397       42.63541
H         19.81441       94.54936       40.44773
H         18.15650       95.13250       40.85579
H         17.86970       96.43405       43.18661
H         18.68102       95.08559       44.07512
H         19.35010       96.72456       44.18032
H         18.44932       92.65658       41.17529
H         19.72300       92.97944       42.41054
H         18.02027       93.46351       42.71295
N         22.50205       97.14399       40.86782
C         23.65913       97.10088       39.98239
C         24.35008       95.75590       40.21212
O         23.76713       94.94002       40.90467
C         24.54320       98.32949       40.32789
C         25.59543       98.72201       39.32262
O         26.41827       99.74883       39.60901
O         25.66840       98.18959       38.22730
H         22.71326       97.23230       41.86045
H         23.33135       97.16348       38.92161
H         25.01088       98.16070       41.32279
H         23.89375       99.22521       40.41275
N         25.53321       95.39784       39.64099
C         26.04476       94.03325       39.73274
C         26.30493       93.55819       41.17115
O         25.69126       92.56188       41.52778
C         27.24048       93.82638       38.77532
C         27.67785       92.38380       38.70069
C         26.77762       91.38652       38.28112
C         28.99469       92.02230       39.03115
C         27.18647       90.05424       38.20093
C         29.40101       90.68719       38.94325
C         28.49748       89.70429       38.52986
H         26.04158       96.06453       39.05333
H         25.23839       93.38421       39.32591
H         28.09157       94.47248       39.04256
H         26.92885       94.13561       37.75416
H         25.75935       91.63486       38.01186
H         29.70807       92.77177       39.35120
H         26.48581       89.29468       37.87919
H         30.41767       90.41460       39.19357
H         28.81296       88.67178       38.46135
N         27.15864       94.15826       42.06572
C         27.37530       93.66564       43.42852
C         26.08668       93.49964       44.21026
O         25.91265       92.50076       44.89356
C         28.22871       94.76003       44.08421
C         29.01646       95.27838       42.90869
C         27.93920       95.35662       41.83001
H         27.94467       92.71021       43.38462
H         27.58671       95.60675       44.42039
H         28.82885       94.40989       44.95241
H         29.56811       96.22491       43.08842
H         29.74721       94.48744       42.61775
H         27.28016       96.24426       41.96179
H         28.45566       95.39817       40.86210
N         25.12931       94.46154       44.12141
C         23.85689       94.44136       44.83400
C         23.09768       93.15804       44.50652
O         22.74692       92.43176       45.42574
C         23.05815       95.73614       44.51317
C         23.86147       96.99836       44.94605
C         23.16558       98.31406       44.72773
O         22.82190       98.76631       43.51187
O         22.93905       99.03117       45.68115
H         25.32032       95.24303       43.47955
H         24.05017       94.45201       45.93013
H         22.08923       95.71280       45.06002
H         22.84336       95.76446       43.43142
H         24.82561       97.07411       44.41205
H         24.07878       96.89784       46.03250
N         22.90024       92.77167       43.21550
C         22.32259       91.50155       42.82017
H         21.46494       91.66762       42.14218
H         23.08281       90.91923       42.25655
H         21.98857       90.89575       43.68720
H         23.23441       93.37596       42.46526
Ca        21.39520      100.47912       43.72647
O         24.02279      101.68373       42.21482
H         23.48908      102.35642       42.70634
H         24.18120      102.09715       41.32942
O         21.70172      100.57316       40.42632
H         22.03967      101.36518       39.93786
H         20.99303      100.92984       41.01672

Ca 1.0



