%chk=holoCaM-CaMKII.loop3.water2.frame278.chk
%nprocshared=20
%mem=10GB
%nosave
#b3lyp/svp scf=(tight,noincore,xqc) Test 
#IOP(5/87=12) Density=Current Pop=(MK,readradii) iop(6/33=2) iop(6/42=6)

holoCaM-CaMKII.loop3.water2.frame278 

   0  1 
C         45.12596       23.13524       86.50589
C         45.24207       21.80456       87.19432
O         45.96182       20.94333       86.70992
H         44.40456       23.80027       87.02806
H         46.11449       23.63831       86.48282
H         44.76556       22.98433       85.46690
N         44.56205       21.57140       88.34891
C         44.58463       20.29642       89.05457
C         43.90135       19.21995       88.21996
O         42.83735       19.45935       87.66683
C         43.97436       20.47636       90.45790
C         43.89293       19.19172       91.22586
O         42.84315       18.88900       91.76411
O         44.91538       18.31971       91.28172
H         44.00262       22.34197       88.74743
H         45.63885       19.99499       89.23978
H         42.95634       20.92029       90.39464
H         44.62571       21.18142       91.01548
N         44.49416       17.99976       88.09010
C         44.01654       16.92017       87.22780
C         42.57062       16.54359       87.51744
O         41.77188       16.54344       86.59123
C         44.97048       15.70933       87.37583
C         44.75256       14.58994       86.34654
C         45.86690       13.53105       86.47548
C         45.82406       12.45013       85.38223
N         44.62566       11.61605       85.46319
H         45.36135       17.83832       88.62623
H         44.08903       17.26742       86.17305
H         44.89988       15.29754       88.40250
H         46.00459       16.08676       87.22012
H         44.80594       15.03135       85.32795
H         43.75203       14.13185       86.49300
H         45.83063       13.05362       87.47918
H         46.84991       14.04346       86.37567
H         46.71904       11.79934       85.50494
H         45.88783       12.92565       84.37810
H         44.56678       11.16418       86.40446
H         43.76793       12.18291       85.28104
H         44.68691       10.86814       84.73470
N         42.16362       16.22692       88.77900
C         40.80765       15.79797       89.11543
C         40.05311       16.79502       89.99320
O         38.92491       16.49877       90.36322
C         40.86123       14.37240       89.71029
C         41.59030       14.17876       91.02229
O         42.02986       15.20434       91.77455
O         41.69154       13.04824       91.46829
H         42.85541       16.28077       89.53163
H         40.19438       15.71263       88.19065
H         41.35209       13.72479       88.95237
H         39.82247       13.99704       89.84612
N         40.56105       18.02509       90.29948
C         39.80341       19.03593       91.03030
C         39.48274       18.68827       92.47517
O         38.68440       19.40474       93.06283
H         41.47663       18.29605       89.92089
H         38.84986       19.20335       90.48458
H         40.35755       20.00051       91.03047
N         40.05229       17.63012       93.12480
C         39.67456       17.23033       94.48378
C         39.95023       18.28562       95.55333
O         39.51538       18.08945       96.68008
C         40.35659       15.89762       94.87835
C         41.84523       16.03233       95.12983
N         42.37653       15.68166       96.32501
O         42.57848       16.45719       94.25171
H         40.73502       17.05975       92.61655
H         38.57766       17.04486       94.45728
H         40.18160       15.14927       94.07527
H         39.86970       15.50951       95.79926
H         41.78342       15.31373       97.08286
H         43.39002       15.77017       96.49242
N         40.67677       19.40817       95.29027
C         40.95040       20.44126       96.27250
C         42.43450       20.63643       96.46368
O         42.82101       21.71550       96.88929
H         41.07189       19.55684       94.35153
H         40.47131       20.25846       97.25879
H         40.52541       21.38668       95.87095
N         43.32744       19.63343       96.20441
C         44.77206       19.81373       96.29653
C         45.43824       19.39549       94.99396
O         44.82765       18.69962       94.19601
C         45.37527       18.98514       97.45196
C         44.88844       19.40390       98.82371
C         45.78191       20.01034       99.72512
C         43.56065       19.17846       99.23214
C         45.35652       20.39251      101.00011
C         43.13814       19.55911      100.51079
C         44.03606       20.16872      101.39877
O         43.64504       20.53835      102.63528
H         42.97582       18.70365       95.93325
H         45.01257       20.88520       96.47329
H         46.47832       19.12223       97.41155
H         45.17523       17.90067       97.30635
H         46.81099       20.19289       99.44198
H         42.85139       18.69778       98.57204
H         46.05694       20.86116      101.68012
H         42.11424       19.37589      100.81198
H         42.74291       20.39594      102.95531
N         46.71535       19.79424       94.72663
C         47.47469       19.37250       93.54977
C         48.79944       18.77614       93.99908
O         49.40328       19.30737       94.92126
C         47.66596       20.54663       92.53916
C         48.26738       20.00816       91.20992
C         48.49855       21.70587       93.11916
C         48.35892       21.04617       90.09075
H         47.16898       20.43407       95.39589
H         46.90615       18.59248       92.99894
H         46.65243       20.93982       92.30657
H         47.61660       19.18678       90.83654
H         49.28168       19.59385       91.38115
H         49.53909       21.38231       93.32976
H         48.53519       22.55768       92.41093
H         48.04021       22.09208       94.05137
H         47.36287       21.48927       89.88582
H         49.07492       21.85224       90.34634
H         48.72529       20.55243       89.16531
N         49.34364       17.70861       93.34827
C         50.63140       17.12897       93.71903
C         51.68272       17.40546       92.65483
O         51.37560       17.99422       91.62903
C         50.46389       15.62509       93.98876
O         50.06512       14.95032       92.82411
H         48.84495       17.31627       92.53801
H         51.00920       17.59679       94.65350
H         49.72690       15.47794       94.81417
H         51.41606       15.17787       94.34113
H         49.11453       14.69391       92.94292
N         52.97672       17.03603       92.87463
C         54.07350       17.30174       91.94662
C         53.85150       16.61960       90.61577
O         53.99210       17.26830       89.58922
C         55.39978       16.82843       92.54687
H         53.19706       16.56314       93.76430
H         54.16702       18.40004       91.78744
H         56.23498       17.06524       91.85283
H         55.58564       17.35809       93.50569
H         55.38412       15.73442       92.73607
N         53.48946       15.30814       90.56099
C         53.20345       14.61012       89.31318
C         52.07347       15.28964       88.55856
O         52.25295       15.61378       87.39275
C         52.83037       13.14986       89.59763
H         53.38506       14.79502       91.45058
H         54.11796       14.59843       88.67814
H         51.92361       13.08559       90.23643
H         52.63710       12.61168       88.64478
H         53.66906       12.64123       90.11956
N         50.88015       15.54676       89.17050
C         49.74363       16.15999       88.47791
C         50.03512       17.57832       87.98975
O         49.23645       18.09948       87.22351
C         48.49550       16.20271       89.38809
C         48.04311       14.80585       89.84566
C         46.84911       14.89333       90.74890
O         45.82429       14.29231       90.47325
O         46.91276       15.60991       91.88636
H         50.78404       15.27597       90.15930
H         49.51360       15.53036       87.58930
H         47.65529       16.68051       88.84022
H         48.72764       16.83161       90.27361
H         48.84615       14.29995       90.41476
H         47.80213       14.18268       88.95740
N         51.13597       18.26986       88.39864
C         51.47720       19.60112       87.94315
H         52.48439       19.57575       87.47480
H         50.75469       19.99468       87.19924
H         51.50780       20.29032       88.81294
H         51.76837       17.84988       89.08208
Ca        44.00840       16.29921       91.66759
O         46.28993       15.48015       94.78984
H         46.81386       14.66925       94.56818
H         46.81514       15.92948       95.49827
O         44.12118       13.55925       93.87527
H         44.00874       12.82924       94.53384
H         43.19654       13.83468       93.65960

Ca 1.0



