%chk=holoCaM.loop3.water2.frame373.chk
%nprocshared=20
%mem=10GB
%nosave
#b3lyp/svp scf=(tight,noincore,xqc) Test 
#IOP(5/87=12) Density=Current Pop=(MK,readradii) iop(6/33=2) iop(6/42=6)

holoCaM.loop3.water2.frame373 

   0  1 
C         -5.15647       -5.90100       39.27806
C         -4.95462       -7.31538       38.82896
O         -4.86500       -7.55820       37.63354
H         -6.10765       -5.82388       39.84475
H         -4.31345       -5.59649       39.93343
H         -5.19913       -5.21403       38.40626
N         -4.85695       -8.31160       39.75132
C         -4.63799       -9.70277       39.38079
C         -5.83817      -10.21944       38.60119
O         -6.93163      -10.26641       39.14892
C         -4.38840      -10.53861       40.64657
C         -3.99644      -11.95538       40.37069
O         -3.73142      -12.75537       41.41142
O         -3.89270      -12.38692       39.23324
H         -4.91140       -8.05728       40.75073
H         -3.71281       -9.74570       38.76184
H         -5.29544      -10.53138       41.29009
H         -3.55337      -10.07805       41.21850
N         -5.71272      -10.54990       37.28555
C         -6.86519      -10.86005       36.44430
C         -7.49717      -12.21670       36.72365
O         -8.65670      -12.38192       36.37161
C         -6.52469      -10.72384       34.94366
C         -6.09154       -9.28497       34.60676
C         -5.95812       -9.05780       33.09863
C         -5.65199       -7.57986       32.81129
N         -5.63984       -7.31192       31.37462
H         -4.78716      -10.43947       36.85061
H         -7.64212      -10.09121       36.65845
H         -7.44359      -10.95321       34.36072
H         -5.73416      -11.44798       34.64626
H         -5.12923       -9.03553       35.10381
H         -6.87437       -8.59234       34.98558
H         -6.92357       -9.32058       32.61403
H         -5.15709       -9.70500       32.67807
H         -4.66796       -7.30576       33.25356
H         -6.43543       -6.94441       33.28274
H         -4.89236       -7.87345       30.90733
H         -6.57201       -7.54621       30.96096
H         -5.45333       -6.29458       31.22010
N         -6.80174      -13.24720       37.28545
C         -7.39645      -14.56378       37.54785
C         -7.28697      -14.98436       39.01258
O         -7.76402      -16.06399       39.33826
C         -6.82527      -15.63784       36.59391
C         -5.34605      -15.86938       36.67766
O         -4.83669      -16.74041       35.99138
O         -4.57030      -15.12193       37.47818
H         -5.80888      -13.09597       37.50381
H         -8.48623      -14.54180       37.32750
H         -7.06595      -15.35208       35.54716
H         -7.34058      -16.60152       36.80415
N         -6.74374      -14.17440       39.96652
C         -6.77178      -14.50005       41.38272
C         -5.85614      -15.62488       41.82769
O         -5.92288      -15.94301       43.00748
H         -6.39795      -13.24104       39.71041
H         -7.81972      -14.74329       41.66661
H         -6.47432      -13.60040       41.96403
N         -4.96561      -16.26455       41.00436
C         -4.10522      -17.34215       41.51047
C         -3.14844      -16.88494       42.61730
O         -2.56702      -17.73599       43.27545
C         -3.37933      -18.11878       40.37894
C         -2.28467      -17.40684       39.55872
N         -1.11694      -17.04936       40.34773
O         -2.77158      -16.31808       38.82933
H         -4.92580      -16.00725       40.01041
H         -4.79377      -18.08403       41.97496
H         -4.14945      -18.48196       39.66524
H         -2.90978      -19.02102       40.82748
H         -0.70521      -17.92733       40.73631
H         -0.39970      -16.64694       39.70344
N         -2.96040      -15.56338       42.89295
C         -2.18885      -15.04381       44.00921
C         -0.99574      -14.22654       43.56830
O         -0.41515      -13.56146       44.41436
H         -3.41099      -14.86712       42.29719
H         -1.82872      -15.84634       44.68768
H         -2.86906      -14.38850       44.59571
N         -0.51341      -14.29343       42.29197
C          0.69474      -13.60547       41.85075
C          0.43928      -12.78942       40.55283
O         -0.91390      -12.45770       40.43230
C          1.82279      -14.63502       41.59947
C          2.07997      -15.51170       42.81186
C          1.15732      -16.50717       43.19336
C          3.24396      -15.34276       43.57783
C          1.37813      -17.29165       44.32525
C          3.46341      -16.12930       44.71482
C          2.52689      -17.10253       45.09468
O          2.71880      -17.85932       46.19354
H         -0.96725      -14.92748       41.63319
H          1.03377      -12.91085       42.65101
H          2.74162      -14.06684       41.33944
H          1.58384      -15.29104       40.73308
H          0.26008      -16.68417       42.62158
H          3.97340      -14.59061       43.30691
H          0.65058      -18.04420       44.60529
H          4.35853      -15.97705       45.30315
H          3.49406      -17.75354       46.76245
N          1.26981      -11.57257       40.52271
C          1.10111      -10.73180       39.31434
C          2.30700      -10.86800       38.39035
O          3.39983      -10.46062       38.76151
C          0.87068       -9.25364       39.76232
C         -0.46432       -9.16161       40.55195
C          0.86661       -8.27611       38.56891
C         -0.75109       -7.78467       41.15216
H          2.27548      -11.78001       40.72622
H          0.19854      -11.04500       38.74275
H          1.71299       -8.96026       40.42875
H         -0.44114       -9.87915       41.39930
H         -1.30962       -9.44278       39.88537
H          0.03104       -8.50094       37.87980
H          0.77662       -7.22600       38.91036
H          1.82428       -8.32245       38.01430
H         -1.70422       -7.82768       41.72073
H          0.06502       -7.49138       41.84541
H         -0.87115       -7.01084       40.36810
N          2.16769      -11.44159       37.16114
C          3.26645      -11.56453       36.20691
C          3.63551      -10.21326       35.60348
O          2.97420       -9.22235       35.87610
C          2.87998      -12.55202       35.08470
O          1.78031      -12.08214       34.34919
H          1.25074      -11.83750       36.91228
H          4.14738      -11.99608       36.73117
H          2.66453      -13.55193       35.52999
H          3.72540      -12.70862       34.38329
H          0.98792      -12.61372       34.62248
N          4.68039      -10.11925       34.73239
C          5.03262       -8.89428       34.01763
C          3.89266       -8.45022       33.12216
O          3.59806       -7.26429       33.08066
C          6.28186       -9.11867       33.16091
H          5.23523      -10.96863       34.54701
H          5.27941       -8.08623       34.74294
H          6.10912       -9.91503       32.40621
H          6.55566       -8.17763       32.63565
H          7.13404       -9.41291       33.80978
N          3.19125       -9.36480       32.39300
C          2.05058       -9.02206       31.55118
C          0.95814       -8.33943       32.35755
O          0.56766       -7.23416       32.00836
C          1.48636      -10.28795       30.88854
H          3.47002      -10.35634       32.46075
H          2.38951       -8.33995       30.73965
H          1.13961      -11.01829       31.65136
H          0.63027      -10.03042       30.22921
H          2.27018      -10.77588       30.27104
N          0.41739       -8.94720       33.45273
C         -0.66530       -8.36102       34.24426
C         -0.25038       -7.06915       34.94626
O         -1.12633       -6.38800       35.46133
C         -1.17526       -9.37337       35.29794
C         -1.76965      -10.63911       34.65576
C         -2.16603      -11.64949       35.69505
O         -1.24723      -12.14498       36.54442
O         -3.31259      -12.05956       35.74956
H          0.78176       -9.87237       33.71265
H         -1.50280       -8.11964       33.55157
H         -1.96283       -8.90156       35.92769
H         -0.32053       -9.65743       35.94932
H         -1.02757      -11.12741       33.99462
H         -2.65196      -10.35729       34.03940
N          1.05249       -6.67331       35.02236
C          1.49162       -5.43947       35.64141
H          2.04925       -4.83668       34.89280
H          0.64676       -4.82862       36.02071
H          2.17230       -5.67311       36.48660
H          1.78649       -7.27431       34.63976
Ca        -1.75728      -14.35632       39.45262
O         -1.70056      -15.69126       35.81743
H         -2.56321      -15.51536       35.36570
H         -1.74522      -16.64503       36.08066
O          0.75823      -15.32280       37.59470
H          0.92504      -15.85595       36.77710
H          1.62405      -14.88305       37.78631

Ca 1.0



