%chk=holoCaM-CaMKII.loop4.water2.frame80.chk
%nprocshared=20
%mem=10GB
%nosave
#b3lyp/svp scf=(tight,noincore,xqc) Test 
#IOP(5/87=12) Density=Current Pop=(MK,readradii) iop(6/33=2) iop(6/42=6)

holoCaM-CaMKII.loop4.water2.frame80 

   -3  1 
C          6.56734       56.87055       66.12329
C          8.03250       56.60855       65.97072
O          8.81622       57.54710       66.01922
H          6.02383       56.51452       65.22551
H          6.19585       56.32846       67.01974
H          6.37584       57.95568       66.26542
N          8.48328       55.33075       65.83526
C          9.90153       55.01982       65.84089
C         10.60066       55.53248       64.58525
O         10.29657       55.08408       63.48876
C         10.13602       53.51039       66.05721
C         11.57433       53.23673       66.39601
O         12.47311       54.23393       66.29891
O         11.91950       52.12621       66.75550
H          7.79578       54.56105       65.83576
H         10.32049       55.51628       66.74717
H          9.80609       52.91032       65.18003
H          9.53855       53.19970       66.94121
N         11.55774       56.49408       64.70021
C         12.29696       57.06096       63.57759
C         13.29364       56.02859       63.02894
O         13.26402       55.72949       61.84409
C         13.06439       58.36662       64.01206
C         12.19218       59.41191       64.77590
C         13.74368       59.04118       62.80359
C         10.97886       59.94592       64.01738
H         11.74289       56.85192       65.64261
H         11.57139       57.36777       62.79106
H         13.87292       58.08519       64.71946
H         12.83563       60.27367       65.06144
H         11.81885       58.98826       65.72709
H         14.30932       59.93983       63.13333
H         14.46459       58.35417       62.31551
H         12.99533       59.35370       62.04593
H         11.28309       60.47707       63.09399
H         10.27899       59.12255       63.76882
H         10.44159       60.67025       64.66748
N         14.25573       55.51138       63.85208
C         15.40935       54.71476       63.40627
C         15.08862       53.30570       62.91620
O         15.99199       52.66442       62.39451
C         16.39618       54.49681       64.58247
C         16.77562       55.74996       65.32907
O         17.48300       56.59467       64.80625
O         16.30686       55.93817       66.58263
H         14.21787       55.80670       64.83547
H         15.91775       55.29031       62.60225
H         17.32114       53.98005       64.24821
H         15.90997       53.79703       65.28903
N         13.89519       52.70110       63.16278
C         13.67322       51.28340       62.91379
C         14.54867       50.41997       63.80850
O         15.24296       49.54486       63.31101
H         13.13195       53.23182       63.60606
H         13.82947       51.04138       61.83896
H         12.62001       51.04099       63.17025
N         14.53755       50.61881       65.15782
C         15.24424       49.79111       66.13643
C         14.26828       49.18800       67.16067
O         14.71772       48.55583       68.10623
C         16.37979       50.60722       66.79573
C         15.94685       51.78229       67.62199
O         16.79195       52.50850       68.11920
O         14.64729       52.03908       67.83979
H         13.98132       51.40731       65.51288
H         15.75402       48.94085       65.63125
H         17.04560       50.97702       65.98531
H         16.98163       49.93945       67.45047
N         12.91500       49.28839       66.99148
C         11.92289       48.63450       67.83134
C         11.53838       49.35242       69.11441
O         10.59384       48.87894       69.73276
H         12.54880       49.72579       66.13563
H         12.21297       47.57936       68.02522
H         10.98067       48.59968       67.23991
N         12.15904       50.47567       69.58690
C         11.68482       51.19434       70.77572
C         11.39529       52.65918       70.49212
O         11.72717       53.16292       69.42752
C         12.69742       51.09047       71.93302
C         12.76301       49.66997       72.51051
C         13.62804       49.58108       73.74665
N         13.69322       48.41966       74.43596
O         14.25341       50.55350       74.14629
H         12.98637       50.83551       69.09697
H         10.71931       50.76769       71.12542
H         12.36347       51.75108       72.76225
H         13.70029       51.43422       71.60294
H         13.13265       48.95567       71.74430
H         11.73352       49.37384       72.80831
H         13.15861       47.59510       74.12591
H         14.26348       48.34993       75.29181
N         10.73933       53.39741       71.43596
C         10.41291       54.81129       71.31079
C         11.02503       55.55862       72.48640
O         10.60887       55.35526       73.61986
C          8.86660       54.98550       71.24940
C          8.41461       56.45036       71.36948
C          8.32139       54.40398       69.93418
H         10.43213       52.92326       72.30045
H         10.83818       55.22639       70.37159
H          8.41268       54.43568       72.10407
H          7.30574       56.51031       71.33586
H          8.72689       56.88010       72.34289
H          8.82706       57.06439       70.54650
H          8.73907       54.95914       69.06466
H          8.58767       53.33213       69.83036
H          7.21440       54.48895       69.90375
N         12.03836       56.44117       72.27459
C         12.65057       57.26018       73.31703
C         11.68727       58.37151       73.73318
O         10.62685       58.49516       73.14316
C         13.97293       57.84046       72.73508
C         14.84283       58.62617       73.68243
N         15.31902       58.06757       74.81776
O         15.14832       59.77542       73.40524
H         12.40773       56.52271       71.31954
H         12.90376       56.61048       74.18223
H         13.73131       58.47564       71.85474
H         14.58989       56.98701       72.38162
H         15.08964       57.09506       75.06465
H         15.92123       58.61360       75.45184
N         12.01196       59.24846       74.72117
C         11.24734       60.46261       75.01092
C         11.24225       61.36438       73.78080
O         10.18093       61.78703       73.34351
C         11.91368       61.20481       76.19321
C         11.33223       62.57806       76.43781
C          9.99246       62.74928       76.82355
C         12.14700       63.71056       76.26548
C          9.48031       64.03587       77.03260
C         11.63378       64.99101       76.47117
C         10.29756       65.15927       76.85629
O          9.79129       66.39244       77.05761
H         12.87639       59.07972       75.25266
H         10.20134       60.21034       75.29726
H         12.99730       61.31260       75.96740
H         11.83218       60.59029       77.11587
H          9.34652       61.89152       76.96217
H         13.18176       63.60456       75.96333
H          8.44695       64.16094       77.33035
H         12.27709       65.85021       76.32871
H         10.32654       67.19122       76.94329
N         12.42191       61.68376       73.17696
C         12.57667       62.57089       72.02214
C         11.82554       62.10165       70.77237
O         11.76578       62.86054       69.81578
C         14.09336       62.69925       71.72893
C         14.48747       63.72084       70.65432
C         15.98127       63.75702       70.50364
O         16.58777       62.75789       70.14892
O         16.65924       64.89228       70.75541
H         13.27176       61.28834       73.59817
H         12.17203       63.56491       72.31570
H         14.47871       61.69516       71.44014
H         14.59683       63.00699       72.67312
H         14.11626       64.72492       70.95250
H         14.06313       63.45585       69.66652
N         11.19590       60.89607       70.70969
C         10.43164       60.44433       69.55634
C          8.95475       60.57694       69.88276
O          8.23956       61.21154       69.11922
C         10.86399       59.01841       69.14467
C         12.37298       58.97220       68.83317
C         12.82356       57.64595       68.28512
O         13.44312       57.60275       67.23677
O         12.59372       56.50423       68.95358
H         11.22961       60.26398       71.51438
H         10.62023       61.09360       68.67146
H         10.28637       58.72204       68.24166
H         10.64761       58.29687       69.96007
H         12.93757       59.17498       69.76524
H         12.62835       59.76401       68.09510
N          8.44381       60.10118       71.05173
C          7.07714       60.34959       71.45628
H          6.37240       59.86960       70.74806
H          6.90513       59.94374       72.47657
H          6.88767       61.44567       71.48863
H          9.05149       59.60165       71.70924
Ca        14.54883       54.60284       67.05361
O         15.49067       53.49272       70.71199
H         15.43356       52.54116       70.44619
H         16.45537       53.64182       70.87700
O         15.86198       56.61124       69.55665
H         16.36377       57.12353       68.87499
H         15.66133       57.27942       70.25751

Ca 1.0



