%chk=holoCaM.loop1.water2.frame192.chk
%nprocshared=20
%mem=10GB
%nosave
#b3lyp/svp scf=(tight,noincore,xqc) Test 
#IOP(5/87=12) Density=Current Pop=(MK,readradii) iop(6/33=2) iop(6/42=6)

holoCaM.loop1.water2.frame192 

   0  1 
C         21.28769       61.75986      114.48332
C         21.97718       61.35534      115.75036
O         21.57711       60.36413      116.34465
H         20.22468       61.99854      114.69430
H         21.77082       62.64831      114.02548
H         21.33740       60.91923      113.75980
N         23.01629       62.08877      116.23927
C         23.74556       61.71523      117.43980
C         23.23818       62.51680      118.62345
O         23.11411       63.72853      118.50936
C         25.25363       61.93533      117.23568
C         26.06034       61.27732      118.31931
O         25.47173       60.47946      119.23214
O         27.26725       61.42460      118.34184
H         23.29593       62.95260      115.74849
H         23.59874       60.63388      117.62536
H         25.46748       63.02696      117.20255
H         25.58267       61.48454      116.27451
N         22.94643       61.89941      119.80540
C         22.36066       62.58548      120.94971
C         23.34089       62.77328      122.10522
O         22.92775       63.35597      123.09867
C         21.12434       61.78705      121.42565
C         20.05601       61.55813      120.33921
C         19.41213       62.86728      119.85536
C         18.24723       62.63979      118.87684
N         18.67948       62.02421      117.62076
H         23.12693       60.88947      119.90144
H         22.04652       63.61189      120.66599
H         20.65031       62.30036      122.29040
H         21.46841       60.78703      121.77386
H         19.26098       60.91893      120.78177
H         20.50589       61.00308      119.48930
H         20.16834       63.51836      119.36922
H         19.00533       63.40224      120.74108
H         17.79288       63.62970      118.64997
H         17.46638       62.00918      119.35726
H         17.85925       61.96450      116.97500
H         19.42024       62.60875      117.17004
H         19.03518       61.05586      117.78279
N         24.64255       62.35295      122.05793
C         25.59035       62.56527      123.15598
C         26.78472       63.42138      122.73536
O         27.61111       63.71770      123.58800
C         26.12437       61.21417      123.66630
C         25.05048       60.26466      124.11588
O         25.04169       59.81370      125.38428
O         24.21144       59.85916      123.32710
H         24.98384       61.86048      121.22370
H         25.09387       63.08747      124.00257
H         26.82130       61.39329      124.51465
H         26.69385       60.73269      122.85617
N         26.96641       63.83811      121.44999
C         28.11749       64.60926      121.01246
C         29.42251       63.85936      121.19156
O         30.35578       64.41533      121.75210
H         26.27450       63.60213      120.72561
H         28.14933       65.58990      121.53613
H         28.00195       64.81161      119.92490
N         29.55890       62.59530      120.70264
C         30.81398       61.83967      120.68760
C         31.20603       61.45463      119.25186
O         32.22446       60.80047      119.07866
C         30.69110       60.57985      121.58285
C         29.56123       59.70198      121.14350
O         29.51073       59.29500      119.99712
O         28.52813       59.46060      121.96027
H         28.72236       62.14895      120.29933
H         31.64454       62.45121      121.10184
H         30.50979       60.89706      122.63305
H         31.63923       60.00152      121.55772
N         30.44516       61.81818      118.17704
C         30.73595       61.46051      116.79944
C         30.63704       59.97194      116.52863
O         31.53605       59.43872      115.90142
H         29.61242       62.40483      118.31092
H         31.72771       61.86062      116.49681
H         29.97003       61.94787      116.15584
N         29.51900       59.27633      116.88624
C         29.20761       57.88197      116.52519
C         27.74028       57.55092      116.83729
O         27.06385       58.30525      117.52547
C         30.11507       56.79201      117.18353
C         31.52638       56.62174      116.60302
O         30.16360       56.94342      118.57657
H         28.80106       59.82615      117.37166
H         29.28264       57.80460      115.41777
H         29.64683       55.80693      116.97116
H         30.82941       57.65417      118.76920
H         31.47074       56.47523      115.50294
H         32.19782       57.46130      116.84867
H         31.99319       55.71821      117.04968
N         27.15969       56.45836      116.25829
C         25.73230       56.15944      116.33759
C         25.51872       54.71849      116.80562
O         25.89906       53.79603      116.09705
C         25.11079       56.44454      114.92982
C         25.21639       57.96688      114.61702
C         23.65526       55.97751      114.82293
C         24.73150       58.36951      113.22341
H         27.73363       55.86830      115.63529
H         25.22723       56.83244      117.06601
H         25.69046       55.87116      114.17182
H         26.27693       58.28533      114.67997
H         24.63804       58.54438      115.37320
H         23.27529       56.11935      113.79308
H         23.57521       54.89327      115.02501
H         23.01353       56.54252      115.51957
H         25.30813       57.82719      112.44523
H         23.64837       58.17510      113.09205
H         24.88663       59.46090      113.08646
N         24.89997       54.45969      117.99862
C         24.57701       53.10781      118.48133
C         23.44142       52.50168      117.65567
O         22.98047       53.13981      116.72739
C         24.16002       53.12374      119.98505
C         25.25158       53.68311      120.90942
O         22.93427       53.78306      120.18079
H         24.65466       55.26678      118.58818
H         25.48465       52.46848      118.40977
H         24.01321       52.07754      120.32356
H         23.09796       54.75492      120.12782
H         24.91726       53.61283      121.96660
H         26.18649       53.09438      120.79622
H         25.46746       54.74594      120.68423
N         22.90305       51.28633      117.96492
C         21.73401       50.73657      117.27511
C         20.51703       51.64372      117.42391
O         19.92346       51.99794      116.41478
C         21.37317       49.31762      117.79478
C         22.44196       48.28497      117.43837
O         21.18593       49.31692      119.18919
H         23.31852       50.74422      118.73491
H         21.95859       50.63618      116.18879
H         20.44312       48.97764      117.27532
H         20.20805       49.30708      119.36129
H         22.12190       47.28258      117.79517
H         22.57043       48.23686      116.33588
H         23.41563       48.53382      117.90718
N         20.06757       52.02611      118.65387
C         18.82483       52.76821      118.86307
C         18.85436       54.10524      118.14497
O         17.93461       54.40554      117.39719
C         18.57581       52.96659      120.37800
C         17.12850       53.36330      120.74186
C         16.13712       52.21348      120.46290
C         14.73227       52.50242      121.00302
N         13.84737       51.35942      120.76614
H         20.61301       51.73926      119.48040
H         18.00765       52.14380      118.45221
H         19.29049       53.72414      120.76885
H         18.78278       52.01524      120.91543
H         16.82106       54.29397      120.21728
H         17.11311       53.56233      121.83580
H         16.51100       51.29342      120.96380
H         16.05703       52.01914      119.37436
H         14.31507       53.40543      120.50587
H         14.78926       52.69409      122.09762
H         14.22489       50.50669      121.24136
H         12.90003       51.56731      121.15584
H         13.75995       51.17578      119.74005
N         19.93598       54.92268      118.28222
C         20.11450       56.18429      117.56493
C         19.90811       55.98141      116.07000
O         19.08662       56.67725      115.48969
C         21.52851       56.74516      117.83972
C         21.70650       57.23031      119.28813
C         23.12352       57.66425      119.53155
O         23.84455       57.11703      120.52767
O         23.63205       58.51372      118.82453
H         20.70416       54.58652      118.88160
H         19.36609       56.93228      117.90997
H         21.71363       57.61841      117.17537
H         22.28035       55.95704      117.61186
H         21.45047       56.43316      120.01486
H         21.02636       58.09097      119.46491
N         20.58381       55.01179      115.39763
C         20.39756       54.71738      113.99078
H         19.67295       55.40311      113.50572
H         21.36644       54.79647      113.45923
H         20.02640       53.67650      113.88295
H         21.23939       54.42463      115.91737
Ca        26.69495       59.32791      120.70162
O         25.99660       56.78917      122.64432
H         25.51526       56.82507      123.50862
H         26.63149       56.03617      122.74469
O         27.84390       55.90818      120.08416
H         28.49778       55.84255      120.82476
H         27.78964       56.87664      119.88840

Ca 1.0



