%chk=holoCaM.loop1.water2.frame314.chk
%nprocshared=20
%mem=10GB
%nosave
#b3lyp/svp scf=(tight,noincore,xqc) Test 
#IOP(5/87=12) Density=Current Pop=(MK,readradii) iop(6/33=2) iop(6/42=6)

holoCaM.loop1.water2.frame314 

   0  1 
C         11.53684       20.29033       47.96624
C         11.01553       19.31738       46.95518
O         10.95376       18.12982       47.23210
H         12.42881       20.80334       47.54683
H         10.75714       21.04600       48.19578
H         11.83110       19.76988       48.90136
N         10.61033       19.76652       45.74071
C         10.15597       18.87982       44.67981
C         11.31212       17.98777       44.21840
O         12.25168       18.48206       43.61222
C          9.54159       19.74848       43.56160
C          9.25817       19.02246       42.29729
O          8.53301       17.90394       42.29772
O          9.68451       19.46293       41.24761
H         10.62838       20.78556       45.57530
H          9.33994       18.23925       45.07988
H         10.22280       20.58952       43.30916
H          8.59140       20.17813       43.95067
N         11.32561       16.66053       44.55038
C         12.42430       15.74449       44.24209
C         12.50324       15.34594       42.77074
O         13.49045       14.72360       42.40203
C         12.26784       14.42938       45.05160
C         12.23604       14.51349       46.59754
C         13.54377       15.00527       47.24268
C         13.63046       16.53330       47.38349
N         14.94422       16.93684       47.87769
H         10.56112       16.30804       45.13709
H         13.38466       16.22616       44.50419
H         13.09898       13.73995       44.78272
H         11.31907       13.94026       44.73165
H         12.10290       13.45752       46.92343
H         11.36240       15.07681       46.99084
H         14.40570       14.58472       46.68160
H         13.59207       14.60726       48.28067
H         12.85335       16.85719       48.10805
H         13.44175       17.06160       46.43498
H         14.95425       17.97408       48.01003
H         15.15061       16.47204       48.79102
H         15.67526       16.68031       47.17460
N         11.47069       15.55571       41.90677
C         11.43749       15.01623       40.54329
C         11.17306       16.07741       39.47573
O         11.07755       15.72036       38.30953
C         10.45572       13.81490       40.48195
C          9.02960       14.05499       40.93216
O          8.63123       15.26904       41.35756
O          8.24815       13.11937       40.95383
H         10.63552       16.03457       42.26247
H         12.42626       14.58222       40.27227
H         10.87344       13.02836       41.15053
H         10.45517       13.39989       39.45050
N         11.13516       17.40467       39.77931
C         11.03208       18.46926       38.78831
C          9.68444       18.63419       38.10468
O          9.56530       19.59497       37.35639
H         11.30242       17.69420       40.75135
H         11.82738       18.34521       38.02225
H         11.23600       19.43234       39.30350
N          8.63149       17.77891       38.27069
C          7.36327       17.98832       37.56281
C          6.57872       19.20078       38.07440
O          5.62280       19.58306       37.41363
C          6.48852       16.70966       37.54760
C          6.09647       16.19711       38.89860
O          6.52526       16.81219       40.00387
O          5.40557       15.19667       38.99780
H          8.75189       16.94075       38.85404
H          7.61019       18.18283       36.49562
H          7.05244       15.90076       37.03716
H          5.56231       16.90890       36.96629
N          6.89671       19.83802       39.24047
C          6.20128       21.01844       39.73398
C          5.36580       20.73876       40.96595
O          4.80256       21.68839       41.49300
H          7.65385       19.47054       39.82771
H          5.50962       21.43550       38.96904
H          6.95621       21.80319       39.95589
N          5.14961       19.46710       41.42417
C          4.18974       19.15358       42.47708
C          4.70888       18.08257       43.49247
O          6.10098       17.99933       43.48499
C          2.86715       18.65946       41.83721
C          2.19995       19.73096       40.95685
O          3.06969       17.47945       41.09797
H          5.56843       18.68448       40.92352
H          3.95928       20.08670       43.04016
H          2.14832       18.42940       42.65196
H          3.58555       17.70836       40.28037
H          1.99211       20.64440       41.55345
H          2.84393       20.00600       40.09439
H          1.23955       19.34445       40.55622
N          4.26182       18.47222       44.83596
C          4.64660       17.61629       45.97475
C          3.56612       16.58897       46.27991
O          2.40202       16.94513       46.40458
C          4.94249       18.55162       47.19252
C          6.29651       19.27440       46.92799
C          4.97235       17.79794       48.53921
C          6.73111       20.25426       48.01761
H          3.24829       18.73198       44.86718
H          5.58915       17.06107       45.76874
H          4.11960       19.29606       47.27794
H          6.22799       19.84002       45.97389
H          7.10551       18.51646       46.81802
H          5.77706       17.04766       48.56648
H          5.11474       18.49932       49.38482
H          4.00085       17.29844       48.73330
H          5.96482       21.04365       48.15734
H          6.91593       19.73314       48.97926
H          7.68982       20.72889       47.71707
N          3.92895       15.29820       46.53135
C          3.00792       14.25371       46.96421
C          3.28135       13.92013       48.42647
O          4.14852       14.53670       49.03069
C          3.16830       12.98861       46.07315
C          2.94416       13.27808       44.58366
O          4.41541       12.37056       46.28275
H          4.92976       15.05833       46.49902
H          1.95499       14.60475       46.88931
H          2.39378       12.24817       46.36168
H          5.10587       12.86759       45.77827
H          3.70018       13.99998       44.21489
H          3.04363       12.33759       43.99996
H          1.93011       13.69736       44.41768
N          2.58292       12.93997       49.06242
C          2.86729       12.51217       50.43490
C          4.29027       11.98276       50.56311
O          4.92068       12.20454       51.58632
C          1.88157       11.41622       50.89767
C          0.44300       11.94242       50.96551
O          1.95219       10.31205       50.03088
H          1.84143       12.45654       48.53479
H          2.75199       13.37967       51.12421
H          2.18255       11.10852       51.92720
H          1.55148        9.54166       50.51117
H          0.38692       12.80613       51.66180
H          0.07752       12.26198       49.96821
H         -0.22878       11.14395       51.34370
N          4.86065       11.29511       49.53640
C          6.23594       10.79952       49.53674
C          7.21647       11.93809       49.76951
O          8.15707       11.77244       50.53383
C          6.55968       10.14430       48.17216
C          5.69632        8.89765       47.88069
C          5.96000        8.29236       46.49071
C          5.53313        9.22801       45.34247
N          5.71781        8.58516       44.04292
H          4.29267       11.15761       48.68939
H          6.37379       10.03160       50.33011
H          7.62727        9.82974       48.15413
H          6.41437       10.91258       47.38799
H          4.61290        9.12540       47.94653
H          5.92415        8.12977       48.65214
H          5.36253        7.35732       46.41330
H          7.03446        8.02600       46.39056
H          6.12974       10.16345       45.35683
H          4.45948        9.49518       45.46528
H          5.41237        9.24472       43.29105
H          6.72679        8.35111       43.89887
H          5.13870        7.71640       43.98437
N          7.05625       13.12144       49.11709
C          8.01564       14.22021       49.17511
C          7.72481       15.19418       50.31214
O          8.52823       16.09344       50.52117
C          7.94132       15.00288       47.85115
C          8.17041       14.13093       46.61006
C          7.72742       14.88153       45.39289
O          6.70519       14.41052       44.66251
O          8.23390       15.94636       45.09372
H          6.23994       13.21774       48.49539
H          9.04172       13.80743       49.30060
H          8.65650       15.85591       47.84332
H          6.91426       15.40626       47.78211
H          7.54984       13.21238       46.65624
H          9.23280       13.82014       46.53733
N          6.58640       15.12149       51.05788
C          6.28392       16.07768       52.10147
H          5.28952       15.85264       52.54388
H          7.05163       16.02452       52.90126
H          6.25397       17.10598       51.68014
H          5.89072       14.39203       50.86992
Ca         6.76643       16.02308       42.46370
O          4.08519       14.68856       41.66522
H          3.14269       14.41203       41.54309
H          4.04269       15.42159       42.32914
O          6.28752       12.37834       42.88512
H          6.11942       11.56636       42.34684
H          7.16070       12.21013       43.32226

Ca 1.0



