%chk=holoCaM.loop4.water3.frame73.chk
%nprocshared=20
%mem=10GB
%nosave
#b3lyp/svp scf=(tight,noincore,xqc) Test 
#IOP(5/87=12) Density=Current Pop=(MK,readradii) iop(6/33=2) iop(6/42=6)

holoCaM.loop4.water3.frame73 

   -3  1 
C        103.67455       16.18397       23.87624
C        103.25004       16.32508       25.30534
O        103.18538       15.31174       25.98478
H        104.67563       15.69869       23.85371
H        102.95534       15.54028       23.32895
H        103.75175       17.16865       23.37366
N        102.95444       17.54650       25.84793
C        102.68609       17.68981       27.27457
C        102.20700       19.09691       27.64250
O        102.92596       20.04692       27.37154
C        104.00521       17.41990       28.04249
C        103.81533       17.35642       29.52085
O        102.69536       17.30293       29.99613
O        104.89094       17.30674       30.32810
H        102.95595       18.38100       25.24291
H        101.90401       16.95252       27.56016
H        104.72501       18.23269       27.80126
H        104.47953       16.46407       27.74521
N        101.02241       19.28906       28.30976
C        100.56423       20.61038       28.76556
C        100.34169       20.67312       30.29716
O        100.06895       21.76452       30.78407
C         99.31633       21.03992       27.91883
C         99.04483       22.56417       27.99567
C         98.05779       20.23399       28.28100
C         98.02223       23.04599       26.95790
H        100.42797       18.47232       28.49226
H        101.36201       21.34814       28.53871
H         99.57857       20.82875       26.85687
H         99.99183       23.10205       27.77460
H         98.70027       22.85817       29.00809
H         97.74184       20.43519       29.32644
H         97.21209       20.46227       27.60273
H         98.25533       19.16343       28.17061
H         97.92482       24.15006       27.01742
H         98.36006       22.78093       25.93238
H         97.01733       22.61274       27.13214
N        100.41923       19.57583       31.11823
C        100.15093       19.59780       32.56974
C        101.27751       19.02256       33.44863
O        101.13439       19.06799       34.66114
C         98.83692       18.83789       32.87759
C         98.77368       17.50601       32.18120
O         99.78884       16.62233       32.26005
O         97.84161       17.27858       31.43044
H        100.61683       18.65924       30.69427
H        100.00905       20.64420       32.92086
H         97.98045       19.44929       32.51438
H         98.70596       18.71662       33.97416
N        102.41892       18.48548       32.93539
C        103.52897       17.98823       33.74461
C        103.28176       16.74382       34.59808
O        104.22687       16.33956       35.26065
H        102.55346       18.50399       31.92610
H        103.87631       18.80888       34.40846
H        104.36783       17.73681       33.05969
N        102.08808       16.08246       34.66681
C        101.88225       14.91970       35.53845
C        102.77457       13.72674       35.19060
O        103.29216       13.10815       36.11008
C        100.39604       14.50346       35.65225
C         99.70644       14.05533       34.39937
O        100.26311       14.08372       33.31785
O         98.43257       13.62845       34.47863
H        101.29147       16.43608       34.12850
H        102.13954       15.22753       36.57777
H         99.81486       15.35934       36.05772
H        100.33008       13.66981       36.38526
N        103.03483       13.37394       33.89848
C        103.92351       12.28141       33.51689
C        103.31908       11.31756       32.50632
O        104.04990       10.44651       32.05577
H        102.64352       13.94984       33.14597
H        104.27751       11.70698       34.40048
H        104.81663       12.73235       33.03592
N        102.02051       11.40104       32.08924
C        101.43444       10.53299       31.07062
C        100.84360       11.36294       29.94421
O        100.00384       12.21167       30.20642
C        100.30324        9.67147       31.65914
C        100.80417        8.64938       32.68591
C         99.68264        7.73151       33.10426
N         98.58331        8.21435       33.72898
O         99.76586        6.53510       32.86863
H        101.40358       12.10504       32.50810
H        102.19160        9.83550       30.64842
H         99.84236        9.10095       30.82047
H         99.52211       10.32371       32.10822
H        101.22457        9.16251       33.57659
H        101.60919        8.03910       32.21843
H         98.49316        9.21803       33.94167
H         97.81739        7.58035       34.00131
N        101.18613       11.11963       28.64755
C        100.53076       11.78353       27.51810
C         99.06248       11.36907       27.52116
O         98.81899       10.16912       27.51649
C        101.18089       11.37487       26.15851
C        100.54434       12.17196       25.00454
C        102.70328       11.60965       26.12732
H        101.89219       10.39259       28.46588
H        100.64118       12.88409       27.62669
H        101.00999       10.28908       25.98236
H         99.44957       12.00048       24.95099
H        100.72548       13.26100       25.14171
H        100.98283       11.86152       24.03255
H        103.23641       10.99697       26.88067
H        103.11060       11.30979       25.13766
H        102.94474       12.67631       26.30380
N         98.03667       12.27799       27.53029
C         96.63523       11.86186       27.63208
C         95.86653       12.06984       26.33088
O         96.42173       12.55722       25.35701
C         95.98168       12.49439       28.89035
C         95.54003       13.93571       28.76860
N         96.18544       14.93728       29.40114
O         94.53035       14.19449       28.14066
H         98.25146       13.28335       27.48618
H         96.59987       10.76634       27.81175
H         96.69895       12.37424       29.72793
H         95.07520       11.91940       29.17826
H         97.03627       14.75971       29.94058
H         95.83864       15.90620       29.33041
N         94.57718       11.63601       26.24849
C         93.74908       11.63663       25.03946
C         93.48621       13.00110       24.39456
O         92.94346       13.01392       23.29801
C         92.38483       10.94148       25.30349
C         91.43131       11.74235       26.18711
C         90.27338       12.30230       25.61472
C         91.65563       11.94154       27.56710
C         89.38237       13.05134       26.39073
C         90.76627       12.69096       28.33674
C         89.63032       13.25101       27.75502
O         88.78565       13.97355       28.51701
H         94.21678       11.17241       27.08396
H         94.30478       11.02924       24.29016
H         92.53513        9.92537       25.72702
H         91.91212       10.79533       24.30669
H         90.06086       12.16893       24.56158
H         92.49412       11.52383       28.08842
H         88.50194       13.47872       25.92938
H         90.96314       12.83221       29.39257
H         87.98604       14.38012       28.15541
N         93.83688       14.17383       24.98755
C         93.66259       15.48791       24.37183
C         95.01479       16.08770       24.01303
O         95.06357       16.96446       23.16166
C         92.89894       16.44012       25.31496
C         91.51553       15.90331       25.70341
C         90.81200       16.85619       26.62834
O         89.74274       17.34932       26.30678
O         91.35210       17.16174       27.82426
H         94.26759       14.13412       25.90616
H         93.09559       15.38605       23.42050
H         92.77583       17.42742       24.81649
H         93.50108       16.58866       26.24003
H         91.62260       14.93070       26.22625
H         90.90714       15.75110       24.78530
N         96.15907       15.66302       24.62300
C         97.49592       16.12898       24.28110
C         97.97289       15.52758       22.96905
O         99.05509       15.89015       22.52855
C         98.46533       15.78388       25.44351
C         98.01077       16.56361       26.68487
C         98.71950       16.29060       27.96961
O         99.68182       15.36880       28.14744
O         98.36327       16.93139       28.93785
H         96.09223       14.99031       25.39166
H         97.48015       17.23755       24.17501
H         99.50771       16.08369       25.19907
H         98.44705       14.68907       25.62906
H         96.94143       16.36449       26.90302
H         98.11368       17.64469       26.45387
N         97.23105       14.61236       22.27771
C         97.66803       14.06692       21.01343
H         98.63305       13.53436       21.14274
H         96.91029       13.34933       20.63155
H         97.78475       14.88526       20.27164
H         96.32643       14.27998       22.63916
Ca       100.24799       15.48909       30.34380
O        104.01029       14.81783       31.26844
H        103.49456       15.52110       31.73785
H        104.89121       14.81813       31.71822
O        102.91409       13.85551       28.80034
H        103.81178       14.17130       28.52852
H        102.30400       14.58904       28.53828
O         98.09839       13.50538       31.69927
H         97.28936       13.02283       31.99944
H         97.95600       14.43997       31.99477

Ca 1.0



