%chk=holoCaM.loop2.water2.frame440.chk
%nprocshared=20
%mem=10GB
%nosave
#b3lyp/svp scf=(tight,noincore,xqc) Test 
#IOP(5/87=12) Density=Current Pop=(MK,readradii) iop(6/33=2) iop(6/42=6)

holoCaM.loop2.water2.frame440 

   -2  1 
C         10.69758       99.87617       57.96650
C         11.80389      100.87161       58.16882
O         12.89579      100.68778       57.65134
H          9.82882      100.37499       57.48646
H         11.02740       99.02890       57.33103
H         10.37668       99.47838       58.95406
N         11.57182      101.96251       58.94236
C         12.56344      102.98766       59.25254
C         13.76706      102.38380       59.97495
O         13.58149      101.69838       60.97062
C         11.87901      104.06073       60.11750
C         12.82173      105.11281       60.58542
O         12.99143      105.28896       61.90500
O         13.42843      105.80874       59.79090
H         10.62404      102.05828       59.34287
H         12.90109      103.47745       58.31155
H         11.42983      103.58020       61.01374
H         11.06410      104.54249       59.53280
N         15.03618      102.62468       59.52311
C         16.24399      102.04108       60.10214
C         17.19582      103.07628       60.70642
O         18.20354      102.66454       61.26449
C         16.97578      101.26428       59.00017
H         15.15678      103.24259       58.71272
H         15.97257      101.33370       60.91489
H         16.30849      100.48889       58.56817
H         17.28308      101.95642       58.18400
H         17.88399      100.76590       59.40001
N         16.96475      104.41940       60.63254
C         17.85195      105.43919       61.20266
C         17.12478      106.32819       62.21442
O         17.72255      107.27628       62.70469
C         18.53626      106.25847       60.08132
C         17.61089      106.81845       59.04440
O         17.02653      106.06193       58.28938
O         17.49723      108.14824       58.87326
H         16.12219      104.75191       60.14456
H         18.68921      104.97509       61.76852
H         19.25701      105.60284       59.54613
H         19.12424      107.08102       60.54299
N         15.86496      106.03607       62.63732
C         15.15129      106.77669       63.66275
C         14.75802      108.17620       63.25253
O         14.95285      109.08924       64.04219
H         15.39602      105.19744       62.27449
H         15.72891      106.78386       64.61341
H         14.20305      106.24003       63.87439
N         14.13821      108.41006       62.05896
C         13.52744      109.69122       61.70542
C         12.04756      109.52744       61.32343
O         11.41602      110.51671       60.97890
C         14.33169      110.40358       60.60537
C         14.17501      109.81268       59.23286
N         13.65738      110.56624       58.23532
O         14.52306      108.66380       59.01204
H         14.07810      107.63811       61.38352
H         13.57177      110.37492       62.58144
H         15.40691      110.42537       60.88620
H         13.98337      111.45909       60.57211
H         13.35436      111.53745       58.40004
H         13.56308      110.18678       57.28911
N         11.41872      108.31587       61.40154
C         10.00563      108.10077       61.14981
C          9.56894      108.07060       59.69516
O          8.38660      107.83245       59.50034
H         11.92560      107.50655       61.77227
H          9.41098      108.84601       61.72103
H          9.74208      107.09645       61.55180
N         10.40882      108.26737       58.62882
C          9.92924      108.17504       57.23800
C         10.70920      107.11995       56.45985
O         11.65674      106.56991       56.99820
C         10.01674      109.54695       56.52759
C          9.35474      110.66218       57.34213
O         11.35450      109.88770       56.29056
H         11.40039      108.48942       58.79458
H          8.86135      107.86956       57.22517
H          9.47958      109.44792       55.55407
H         11.37141      110.45429       55.47473
H          9.39556      111.61499       56.77337
H          8.29463      110.41542       57.55695
H          9.89591      110.81398       58.30153
N         10.34889      106.77829       55.18042
C         11.10397      105.81918       54.37276
C         11.47141      106.40281       53.00366
O         10.60051      106.69639       52.20066
C         10.36195      104.44890       54.23773
C          8.95546      104.55470       53.58613
C         10.29503      103.75977       55.61581
C          8.29724      103.19723       53.33814
H          9.50277      107.19931       54.77223
H         12.06132      105.57563       54.88322
H         10.99368      103.80277       53.58784
H          9.03615      105.02285       52.58872
H          8.28073      105.17543       54.21224
H         11.31316      103.67099       56.05219
H          9.65301      104.33357       56.31611
H          9.90429      102.72596       55.53229
H          8.96204      102.56882       52.71769
H          8.07331      102.66546       54.28294
H          7.33991      103.34197       52.79456
N         12.78246      106.55168       52.66246
C         13.26067      106.87230       51.31855
C         12.96649      105.71370       50.36583
O         12.39615      104.71624       50.77977
C         14.79804      107.10322       51.35521
C         15.21542      108.32335       52.12854
O         14.30362      109.15816       52.66276
O         16.40267      108.58656       52.23491
H         13.48046      106.38063       53.38441
H         12.77041      107.79733       50.94358
H         15.19714      107.25989       50.33470
H         15.29123      106.20218       51.78551
N         13.36813      105.77328       49.06708
C         13.21023      104.69104       48.09775
C         13.86486      103.37231       48.55010
O         13.14594      102.38535       48.58146
C         13.76186      105.15217       46.73053
C         13.63569      104.11058       45.64679
C         12.37518      103.63126       45.24952
C         14.78880      103.61938       45.01086
C         12.27434      102.67529       44.23371
C         14.68301      102.66542       43.99601
C         13.42708      102.19352       43.60721
H         13.82528      106.64134       48.74736
H         12.12033      104.50256       47.96812
H         14.82516      105.44475       46.84927
H         13.21055      106.06208       46.40681
H         11.47217      103.99839       45.72043
H         15.77044      103.97584       45.29794
H         11.30209      102.30982       43.92974
H         15.57592      102.29438       43.51000
H         13.34775      101.45611       42.81930
N         15.18592      103.24338       48.91192
C         15.81028      101.97625       49.30384
C         15.10035      101.28441       50.45912
O         14.80258      100.10407       50.33087
C         17.26595      102.36165       49.61674
C         17.17533      103.83239       49.97637
C         16.14868      104.32398       48.96727
H         15.82297      101.25179       48.45873
H         17.79376      101.70881       50.34523
H         17.83218      102.32966       48.65857
H         16.75368      103.93580       50.99529
H         18.13929      104.38322       49.95426
H         15.74841      105.29293       49.29799
H         16.62287      104.41978       47.96511
N         14.75318      101.94972       51.58958
C         14.01079      101.34578       52.69759
C         12.71542      100.73154       52.19054
O         12.48290       99.56019       52.45495
C         13.76829      102.42348       53.76795
C         15.09414      102.75405       54.48603
C         14.99263      104.05830       55.19507
O         14.92390      105.08177       54.54558
O         14.98709      104.14018       56.52845
H         14.97290      102.95302       51.63972
H         14.60325      100.52704       53.16664
H         13.04023      102.08754       54.54004
H         13.33920      103.31731       53.26175
H         15.94573      102.85154       53.77913
H         15.32730      101.92652       55.19160
N         11.87333      101.43286       51.38420
C         10.69588      100.85813       50.76293
H          9.80455      101.46328       51.00554
H         10.82748      100.86695       49.66038
H         10.51235       99.81123       51.08293
H         12.10858      102.40041       51.14407
Ca        14.53629      106.20532       57.30036
O         17.01945      107.31672       55.50335
H         17.91206      106.93942       55.70426
H         16.92448      107.21815       54.52332
O         14.15040      108.59988       55.48097
H         13.38251      108.26239       56.00312
H         14.37713      107.84848       54.88337

Ca 1.0



