%chk=holoCaM-CaMKII.loop4.water2.frame272.chk
%nprocshared=20
%mem=10GB
%nosave
#b3lyp/svp scf=(tight,noincore,xqc) Test 
#IOP(5/87=12) Density=Current Pop=(MK,readradii) iop(6/33=2) iop(6/42=6)

holoCaM-CaMKII.loop4.water2.frame272 

   -3  1 
C         60.76017       19.98844       74.75035
C         60.09574       18.66894       75.00308
O         58.88545       18.62124       75.13855
H         61.30928       19.95647       73.78652
H         60.01287       20.80891       74.71833
H         61.47967       20.19552       75.57176
N         60.84797       17.54140       75.07003
C         60.31657       16.21887       75.38795
C         59.84635       16.18732       76.84515
O         60.63369       16.52970       77.71661
C         61.42776       15.18847       75.11626
C         61.01556       13.79172       75.42642
O         61.72669       13.08848       76.31876
O         60.06203       13.28080       74.86551
H         61.86015       17.63881       74.88696
H         59.47637       15.97676       74.69957
H         62.32949       15.43511       75.71778
H         61.70618       15.23659       74.03942
N         58.57392       15.79772       77.17772
C         58.02114       15.88280       78.53803
C         57.74578       14.50602       79.16304
O         57.56315       14.47319       80.37231
C         56.72972       16.77958       78.50804
C         57.07386       18.20637       78.00890
C         56.01009       16.86425       79.87150
C         55.85004       19.06067       77.66133
H         57.95284       15.47120       76.42591
H         58.77157       16.35902       79.20810
H         56.02611       16.31306       77.78252
H         57.65019       18.12635       77.07706
H         57.70444       18.73341       78.75824
H         55.09340       17.48109       79.81024
H         55.65179       15.87004       80.20074
H         56.68292       17.29406       80.64374
H         55.20767       19.25818       78.54039
H         56.18583       20.04151       77.26364
H         55.24758       18.55980       76.87666
N         57.72706       13.33600       78.45452
C         57.49586       12.02784       79.09017
C         58.70799       11.11148       78.97240
O         58.63647        9.97940       79.43027
C         56.22020       11.35455       78.53363
C         56.32108       10.88083       77.11231
O         55.33795       10.40946       76.56458
O         57.46315       11.01122       76.41768
H         57.88493       13.36571       77.43964
H         57.30768       12.15821       80.17749
H         55.37929       12.07835       78.62013
H         55.96951       10.46821       79.15560
N         59.86904       11.54285       78.40722
C         61.06662       10.73203       78.32069
C         60.98519        9.63757       77.28027
O         61.28066        8.49729       77.60557
H         59.94793       12.51550       78.08098
H         61.33345       10.33670       79.32450
H         61.90691       11.38354       78.01111
N         60.67770        9.93418       75.98267
C         60.84386        8.99785       74.87166
C         61.85214        9.53968       73.84403
O         62.01872        8.92219       72.80149
C         59.48600        8.60760       74.24226
C         58.68665        9.72009       73.63175
O         59.14392       10.38683       72.72197
O         57.41299        9.91523       74.01680
H         60.37558       10.89175       75.75533
H         61.26623        8.03531       75.23467
H         58.86611        8.11442       75.02284
H         59.67472        7.85461       73.44664
N         62.61703       10.64437       74.10607
C         63.65859       11.15855       73.22540
C         63.16656       11.93313       72.01812
O         64.01535       12.45565       71.30607
H         62.54729       11.10058       75.02302
H         64.33507       10.33204       72.91710
H         64.26672       11.88210       73.81119
N         61.84701       12.06922       71.70952
C         61.35781       12.84554       70.57246
C         60.31581       13.85891       71.00124
O         59.90109       13.86405       72.15498
C         60.78441       11.88893       69.50730
C         61.92664       11.16381       68.77812
C         61.41562       10.16210       67.78122
N         60.79007        9.03797       68.19893
O         61.59380       10.35003       66.58692
H         61.15060       11.59164       72.29189
H         62.18073       13.43802       70.11270
H         60.22026       12.45532       68.73459
H         60.07882       11.17829       69.99293
H         62.59507       10.63608       69.48967
H         62.52553       11.93810       68.24693
H         60.66220        8.85115       69.20431
H         60.45923        8.33949       67.51723
N         59.87478       14.78684       70.10677
C         58.89703       15.82008       70.41668
C         57.74265       15.69524       69.43513
O         57.99545       15.74544       68.23610
C         59.54671       17.23352       70.33221
C         58.58217       18.30821       70.86837
C         60.85906       17.31015       71.13180
H         60.28016       14.78442       69.15564
H         58.53385       15.69831       71.45468
H         59.79427       17.46209       69.27174
H         57.62913       18.31233       70.30224
H         58.35748       18.12392       71.94242
H         59.03762       19.31779       70.78067
H         60.68746       17.07872       72.20392
H         61.60711       16.59751       70.72495
H         61.29808       18.32815       71.04939
N         56.45154       15.56967       69.85703
C         55.31432       15.51147       68.93537
C         54.56127       16.82526       68.97526
O         55.00736       17.72522       69.66622
C         54.40428       14.28111       69.18448
C         53.43672       14.39926       70.34300
N         53.84970       14.45802       71.62617
O         52.23752       14.42328       70.10523
H         56.27104       15.60941       70.86818
H         55.68704       15.39620       67.89375
H         55.01746       13.36048       69.26631
H         53.78221       14.15610       68.27097
H         54.84192       14.39643       71.87731
H         53.15591       14.54035       72.38287
N         53.43512       17.03669       68.24456
C         52.75697       18.32955       68.20452
C         52.29393       18.78743       69.58375
O         52.53369       19.92821       69.94954
C         51.52842       18.27809       67.27374
C         51.03953       19.68263       67.02116
C         51.83414       20.55826       66.26121
C         49.82519       20.14184       67.55379
C         51.42710       21.87294       66.04058
C         49.42311       21.46551       67.33948
C         50.22509       22.33484       66.58215
O         49.85548       23.61367       66.37175
H         53.06543       16.26333       67.66969
H         53.47831       19.06990       67.79281
H         50.74391       17.64332       67.74445
H         51.78361       17.82235       66.29268
H         52.77292       20.21975       65.83929
H         49.20365       19.48636       68.15128
H         52.05274       22.53337       65.45343
H         48.49295       21.81654       67.76717
H         49.03861       23.98028       66.73761
N         51.62198       17.92285       70.39245
C         51.09007       18.24594       71.71942
C         52.15076       18.90793       72.57850
O         51.91456       19.98667       73.10513
C         50.58958       16.94551       72.40021
C         49.37485       16.33237       71.67740
C         49.06342       14.96140       72.20783
O         48.75932       14.78324       73.50687
O         49.08878       13.99755       71.45771
H         51.52782       16.95896       70.04620
H         50.23807       18.95529       71.62830
H         50.29929       17.14525       73.45594
H         51.42640       16.21379       72.41091
H         49.56442       16.23474       70.58954
H         48.49478       16.99748       71.80781
N         53.36181       18.32092       72.72854
C         54.45670       18.88713       73.51089
C         54.88657       20.22962       72.94759
O         54.91558       21.20392       73.68592
C         55.62909       17.89170       73.51755
C         55.19771       16.60912       74.24494
C         56.19778       15.51454       74.19937
O         56.01951       14.48857       75.03120
O         57.10711       15.49362       73.38961
H         53.51063       17.42795       72.23413
H         54.13373       19.03265       74.56742
H         56.49679       18.32480       74.06181
H         55.93818       17.67091       72.47327
H         54.26811       16.16987       73.83596
H         54.99175       16.85952       75.30506
N         55.20506       20.35045       71.63193
C         55.60168       21.58483       70.99158
H         56.58600       21.43777       70.49963
H         54.85293       21.84619       70.21334
H         55.68054       22.42707       71.70833
H         55.13644       19.52511       71.03743
Ca        57.30567       12.69463       75.00076
O         54.28202       12.36757       73.76140
H         54.68292       12.04199       74.60378
H         53.54239       12.95355       74.05943
O         56.81331       11.94641       71.33417
H         55.87724       12.10360       71.05711
H         56.83357       10.98475       71.56527

Ca 1.0



