%chk=holoCaM-CaMKII.loop3.water2.frame1.chk
%nprocshared=20
%mem=10GB
%nosave
#b3lyp/svp scf=(tight,noincore,xqc) Test 
#IOP(5/87=12) Density=Current Pop=(MK,readradii) iop(6/33=2) iop(6/42=6)

holoCaM-CaMKII.loop3.water2.frame1 

   0  1 
C         64.75447       52.45760       60.68050
C         64.57833       52.21654       62.14662
O         65.38824       52.69587       62.92668
H         65.66164       53.07117       60.49087
H         64.87229       51.48315       60.16060
H         63.86660       52.98730       60.27998
N         63.54987       51.43922       62.59082
C         63.35262       51.10038       63.99235
C         63.69034       49.63936       64.18473
O         62.86523       48.83874       64.59812
C         61.94330       51.52830       64.44912
C         61.65123       51.19249       65.89291
O         60.69480       50.48138       66.15362
O         62.41452       51.66533       66.90425
H         62.90767       51.02440       61.89801
H         64.08220       51.63615       64.61816
H         61.18460       51.03960       63.79929
H         61.84803       52.62738       64.31982
N         64.96176       49.24972       63.89859
C         65.49844       47.91493       64.13218
C         65.71808       47.60595       65.61540
O         66.07515       46.47261       65.90581
C         66.79105       47.70915       63.30586
C         67.94967       48.66849       63.64913
C         69.08792       48.51471       62.63423
C         70.16142       49.59027       62.84466
N         71.20991       49.48519       61.83139
H         65.56537       49.96071       63.47142
H         64.76510       47.17960       63.73097
H         66.51015       47.86307       62.23984
H         67.14186       46.65889       63.41015
H         68.31413       48.48723       64.68312
H         67.61808       49.72081       63.58646
H         68.67416       48.64584       61.60930
H         69.53091       47.49818       62.71185
H         70.60619       49.48808       63.85850
H         69.69046       50.59703       62.76728
H         71.90914       50.24740       61.98321
H         71.68936       48.55920       61.90551
H         70.79793       49.59444       60.87556
N         65.48764       48.52527       66.60670
C         65.54584       48.19619       68.03451
C         64.14467       48.13957       68.64500
O         64.02352       47.76230       69.80224
C         66.48349       49.14164       68.81742
C         66.03095       50.57480       68.84233
O         65.68439       51.14901       70.01013
O         66.01136       51.23580       67.81853
H         65.17823       49.47082       66.34952
H         65.96026       47.17260       68.16304
H         67.51151       49.09308       68.39786
H         66.53495       48.77735       69.86732
N         63.03538       48.41242       67.89914
C         61.67686       48.14986       68.32918
C         61.12308       49.05369       69.40258
O         59.97534       48.82507       69.76044
H         63.13945       48.70989       66.92797
H         61.60773       47.09073       68.65755
H         61.00666       48.26107       67.44949
N         61.81506       50.08712       69.97190
C         61.19921       50.89471       71.02551
C         59.98384       51.69159       70.54347
O         59.25482       52.18718       71.39127
C         62.21303       51.80984       71.74978
C         62.85480       52.88859       70.91064
N         63.67823       53.78679       71.49729
O         62.64070       52.96397       69.71211
H         62.78938       50.27079       69.69248
H         60.83754       50.17767       71.79745
H         63.02124       51.18253       72.18423
H         61.67984       52.30442       72.59101
H         63.86725       53.74266       72.50947
H         64.11745       54.53590       70.94337
N         59.70381       51.86557       69.21645
C         58.51265       52.54603       68.72589
C         58.80892       53.85038       68.01307
O         57.86049       54.46505       67.54496
H         60.35194       51.49827       68.50996
H         57.81647       52.78726       69.55774
H         57.97936       51.85759       68.03597
N         60.06685       54.37576       67.94404
C         60.35693       55.70145       67.40225
C         61.45472       55.65646       66.35946
O         62.07898       54.62424       66.17979
C         60.87565       56.58044       68.55924
C         59.88994       56.69543       69.69103
C         60.17480       56.11102       70.93745
C         58.68668       57.39498       69.51712
C         59.26800       56.22544       71.99322
C         57.78470       57.51652       70.57814
C         58.07335       56.93158       71.82059
O         57.21459       57.04405       72.85343
H         60.84834       53.86117       68.36553
H         59.44804       56.15369       66.94894
H         61.13991       57.60222       68.21086
H         61.80898       56.10778       68.93709
H         61.09589       55.56216       71.09272
H         58.45475       57.85588       68.56508
H         59.49752       55.76815       72.94756
H         56.86446       58.06786       70.43422
H         56.38315       57.53359       72.77955
N         61.77525       56.78513       65.66734
C         62.97945       56.93009       64.85502
C         63.66275       58.21525       65.29803
O         63.03510       59.26462       65.23079
C         62.66378       56.97263       63.33253
C         61.92036       55.68108       62.90230
C         63.98220       57.13083       62.53553
C         61.50223       55.67193       61.43004
H         61.16205       57.60918       65.77172
H         63.65945       56.06294       65.01320
H         62.00902       57.84749       63.12426
H         60.98954       55.58437       63.50009
H         62.55614       54.78997       63.10173
H         63.79629       57.22378       61.44818
H         64.52352       58.05258       62.83187
H         64.65250       56.26074       62.71222
H         62.38073       55.67742       60.75409
H         60.92827       54.74603       61.21653
H         60.85848       56.54939       61.20852
N         64.95496       58.21674       65.72440
C         65.65649       59.42957       66.13594
C         66.68144       59.84961       65.09733
O         66.85950       59.16641       64.09798
C         66.30993       59.22332       67.51497
O         67.34905       58.28142       67.44609
H         65.46388       57.32744       65.72090
H         64.93730       60.27261       66.22402
H         65.54408       58.92543       68.26775
H         66.74337       60.17574       67.88425
H         66.96574       57.40237       67.69267
N         67.36860       61.01307       65.26652
C         68.34905       61.52092       64.31598
C         69.53771       60.59002       64.19553
O         69.88783       60.22147       63.08429
C         68.83377       62.91001       64.75006
H         67.16172       61.58059       66.10313
H         67.86688       61.64618       63.31990
H         69.32240       62.87226       65.74676
H         69.55851       63.31027       64.00876
H         67.97181       63.60915       64.80393
N         70.23035       60.19669       65.30244
C         71.44277       59.38459       65.23493
C         71.23814       57.97008       64.69101
O         72.24306       57.29488       64.51338
C         72.09266       59.30549       66.62266
H         69.91365       60.54302       66.22170
H         72.15811       59.90885       64.56259
H         71.41698       58.79206       67.33999
H         73.05586       58.75388       66.57446
H         72.30423       60.32954       66.99891
N         70.00804       57.44585       64.39863
C         69.82964       56.09870       63.84382
C         69.21380       56.11802       62.44736
O         69.10752       55.05359       61.85347
C         68.97461       55.22810       64.79402
C         67.51255       55.69023       64.84753
C         66.68784       54.86284       65.78113
O         66.94705       54.82115       66.97044
O         65.62670       54.19624       65.30150
H         69.17214       58.01507       64.57539
H         70.81832       55.60127       63.74803
H         69.42347       55.25711       65.81137
H         68.99104       54.17288       64.44114
H         67.05911       55.61858       63.83414
H         67.47273       56.74058       65.17621
N         68.75817       57.26861       61.87112
C         68.13121       57.32235       60.56737
H         67.09950       57.71935       60.67738
H         68.70948       58.00641       59.91207
H         68.07386       56.32719       60.08049
H         68.82717       58.16020       62.37040
Ca        64.19708       53.00725       66.56144
O         64.53282       56.19124       68.74945
H         64.07520       56.76246       69.41599
H         65.46671       56.14407       69.07275
O         66.99219       53.72391       69.57155
H         66.63524       54.07292       70.42574
H         67.80909       54.25786       69.40565

Ca 1.0



