%chk=holoCaM-CaMKII.loop1.water2.frame160.chk
%nprocshared=20
%mem=10GB
%nosave
#b3lyp/svp scf=(tight,noincore,xqc) Test 
#IOP(5/87=12) Density=Current Pop=(MK,readradii) iop(6/33=2) iop(6/42=6)

holoCaM-CaMKII.loop1.water2.frame160 

   0  1 
C         91.26071      106.89168       25.15000
C         90.86066      108.31008       24.88289
O         91.66227      109.20200       25.09377
H         92.29773      106.84146       25.54403
H         90.57018      106.45169       25.90014
H         91.20199      106.30485       24.20942
N         89.62312      108.57578       24.38806
C         89.09715      109.90865       24.09599
C         88.81573      110.68101       25.39296
O         87.67103      110.72394       25.82556
C         87.79784      109.72334       23.27935
C         87.19868      111.00742       22.80878
O         87.80631      112.18834       23.02951
O         86.14372      110.97211       22.20552
H         89.02618      107.75919       24.17781
H         89.80583      110.46763       23.44302
H         87.04704      109.18069       23.89495
H         88.00733      109.11061       22.37591
N         89.81712      111.28236       26.09483
C         89.60280      111.87089       27.41496
C         88.89874      113.21980       27.41250
O         88.58718      113.68093       28.50268
C         90.93449      111.95340       28.19092
C         91.56454      110.56727       28.46545
C         90.65608      109.57698       29.22926
C         90.16784      110.12709       30.58078
N         89.33351      109.14946       31.27719
H         90.77492      111.24070       25.72698
H         88.92839      111.20195       27.98613
H         90.76802      112.45213       29.16799
H         91.65711      112.58395       27.62747
H         92.49498      110.72444       29.05141
H         91.85614      110.09126       27.50758
H         91.23240      108.64278       29.40196
H         89.78114      109.29853       28.60453
H         89.56414      111.04681       30.42521
H         91.04564      110.38339       31.21321
H         88.48693      108.92744       30.70383
H         89.87722      108.27584       31.46126
H         89.02338      109.55622       32.18942
N         88.58079      113.90078       26.27342
C         87.80452      115.14462       26.29726
C         86.43439      114.97371       25.64492
O         85.66956      115.92835       25.64309
C         88.61800      116.32537       25.71974
C         89.02054      116.22081       24.27482
O         89.72802      117.22349       23.72053
O         88.71716      115.25503       23.59611
H         88.86435      113.51265       25.36311
H         87.58007      115.43704       27.34605
H         89.54252      116.43893       26.32682
H         88.02261      117.25720       25.83827
N         86.02535      113.77597       25.13180
C         84.69034      113.53195       24.61462
C         84.36979      114.39433       23.42140
O         83.39314      115.12827       23.46593
H         86.65845      112.96887       25.14791
H         83.94815      113.69865       25.42535
H         84.61556      112.46670       24.30220
N         85.15335      114.33985       22.31020
C         84.90491      115.11420       21.09610
C         84.65709      114.23693       19.87132
O         84.34048      114.78883       18.82664
C         86.04673      116.13461       20.86564
C         87.46283      115.59821       20.78269
O         88.38347      116.39028       20.66479
O         87.74511      114.28558       20.90113
H         85.96716      113.71708       22.34235
H         83.97292      115.70939       21.21882
H         86.02706      116.84120       21.72405
H         85.82672      116.71916       19.94622
N         84.76235      112.87790       19.91569
C         84.48676      111.99781       18.79285
C         85.73079      111.31274       18.26454
O         85.58581      110.49417       17.36768
H         85.04508      112.42290       20.78370
H         84.03476      112.55144       17.94178
H         83.74888      111.23583       19.12435
N         86.98636      111.65184       18.68863
C         88.20010      111.15202       18.04276
C         89.29703      110.81816       19.04454
O         89.15756      111.10401       20.22411
C         88.72355      112.22043       17.04780
C         87.78237      112.43524       15.85559
O         88.96627      113.44053       17.70214
H         87.09038      112.39713       19.38852
H         87.97881      110.21736       17.48235
H         89.68440      111.86993       16.61455
H         88.09417      113.86458       17.91770
H         87.64002      111.47969       15.30855
H         86.79358      112.81751       16.18410
H         88.22928      113.17785       15.16128
N         90.42579      110.17311       18.61737
C         91.57176      109.86422       19.47063
C         92.84620      110.27681       18.72687
O         93.14905      109.68233       17.70105
C         91.57579      108.34415       19.82393
C         90.26602      107.96378       20.56935
C         92.80550      107.97948       20.68193
C         90.07176      106.45963       20.76222
H         90.46159      109.85495       17.63668
H         91.49654      110.42834       20.42609
H         91.62075      107.77081       18.87134
H         89.38698      108.29885       19.98236
H         90.23731      108.47376       21.55641
H         93.74665      108.22777       20.15234
H         92.78367      108.52714       21.64822
H         92.84439      106.89231       20.89074
H         89.10031      106.28061       21.27084
H         90.04693      105.95346       19.77336
H         90.86726      106.01217       21.38845
N         93.62403      111.30739       19.16864
C         94.85074      111.74454       18.48657
C         96.00452      110.80227       18.81736
O         95.80045      109.87206       19.57456
C         95.22806      113.19452       18.91678
C         94.11605      114.19273       18.60104
O         95.49467      113.23922       20.28920
H         93.31164      111.82167       20.00148
H         94.67682      111.76873       17.38801
H         96.13715      113.50392       18.35463
H         95.87542      114.13373       20.48776
H         93.22987      113.95370       19.21463
H         94.44153      115.22015       18.87032
H         93.85589      114.16910       17.52324
N         97.26509      111.01036       18.33514
C         98.43102      110.28740       18.85587
C         98.63070      110.62685       20.32431
O         98.84144      109.72624       21.12399
C         99.73835      110.64059       18.09919
C         99.74354      110.07949       16.67677
O         99.94205      112.03124       18.07530
H         97.41423      111.75952       17.64325
H         98.28988      109.18734       18.75462
H        100.57905      110.14526       18.64476
H        100.91477      112.18007       17.94144
H        100.71885      110.30213       16.19317
H         99.62448      108.97441       16.70900
H         98.92706      110.51834       16.06924
N         98.57266      111.92442       20.73793
C         98.81897      112.36141       22.10955
C         97.93101      111.60440       23.08919
O         98.43144      111.10421       24.08631
C         98.62445      113.89754       22.26131
C         99.41757      114.77839       21.26128
C        100.92917      114.50770       21.24936
C        101.64021      115.41333       20.23107
N        103.07769      115.14426       20.20216
H         98.32731      112.62937       20.03118
H         99.87597      112.14071       22.37113
H         98.92488      114.18166       23.29383
H         97.55075      114.15575       22.14556
H         99.24009      115.84446       21.52511
H         99.02567      114.64136       20.23285
H        101.11595      113.45275       20.95694
H        101.34610      114.68450       22.26397
H        101.47153      116.48080       20.49549
H        101.21818      115.23377       19.21621
H        103.25252      114.14944       19.92992
H        103.52968      115.77027       19.49681
H        103.49758      115.33299       21.14109
N         96.60437      111.44508       22.83375
C         95.68938      110.68274       23.67553
C         96.08836      109.21259       23.68705
O         96.33932      108.67150       24.75474
C         94.22263      110.89789       23.20337
C         93.82179      112.37806       23.40832
C         92.38284      112.70929       23.10017
O         91.89491      112.62640       21.84639
O         91.66506      113.14516       23.98581
H         96.23549      111.85953       21.97499
H         95.74343      111.06558       24.71887
H         93.55705      110.26776       23.82607
H         94.09616      110.59685       22.14004
H         94.45979      113.04029       22.78869
H         94.00698      112.63208       24.47514
N         96.20739      108.51553       22.52689
C         96.63659      107.13476       22.46680
H         97.64292      107.02689       22.92526
H         95.90954      106.48319       22.99342
H         96.70387      106.80806       21.40532
H         96.01341      108.99310       21.64759
Ca        89.84700      113.52626       21.38545
O         90.86917      114.98283       19.06250
H         91.11795      114.14594       18.59527
H         91.48099      115.66534       18.69103
O         92.22513      115.77329       21.79665
H         91.89944      116.06092       22.68585
H         92.99239      116.36971       21.60862

Ca 1.0



