%chk=holoCaM.loop2.water1.frame148.chk
%nprocshared=20
%mem=10GB
%nosave
#b3lyp/svp scf=(tight,noincore,xqc) Test 
#IOP(5/87=12) Density=Current Pop=(MK,readradii) iop(6/33=2) iop(6/42=6)

holoCaM.loop2.water1.frame148 

   -2  1 
C         -6.66375       61.41779        8.88453
C         -5.42817       60.57238        9.03341
O         -4.35352       61.08975        9.29801
H         -7.43053       61.06212        9.60989
H         -6.45635       62.48606        9.09678
H         -7.08021       61.31336        7.86073
N         -5.55337       59.22593        8.94067
C         -4.49911       58.26301        9.24806
C         -3.43985       58.11516        8.16030
O         -3.75491       58.24811        6.98628
C         -5.19807       56.92148        9.52535
C         -4.29185       55.76280        9.73567
O         -4.42541       54.78778        9.01748
O         -3.37034       55.76479       10.71759
H         -6.50932       58.86937        8.77618
H         -4.00021       58.57027       10.18243
H         -5.85622       56.67463        8.66400
H         -5.83265       57.04040       10.42933
N         -2.15404       57.78004        8.51009
C         -1.07845       57.52085        7.55350
C         -0.29083       56.21511        7.82586
O          0.56358       55.89719        7.01029
C         -0.12692       58.72176        7.56360
H         -1.92134       57.74773        9.51080
H         -1.50407       57.45073        6.52842
H         -0.70019       59.64943        7.34379
H          0.35569       58.83427        8.55786
H          0.65824       58.61446        6.78527
N         -0.47506       55.43840        8.94452
C          0.29256       54.21892        9.25500
C         -0.59141       52.98205        9.52688
O         -0.04356       51.92140        9.79585
C          1.24318       54.49861       10.44464
C          0.56493       55.05975       11.66321
O          0.92403       56.26591       12.13957
O         -0.29869       54.42900       12.23725
H         -1.14810       55.74246        9.65324
H          0.94933       53.94357        8.39989
H          2.00168       55.24043       10.11653
H          1.78640       53.56740       10.72016
N         -1.94961       53.02743        9.42763
C         -2.84945       51.88263        9.58479
C         -3.03697       51.35143       11.00365
O         -3.73884       50.36052       11.14960
H         -2.35941       53.90581        9.12328
H         -2.49527       51.06205        8.92342
H         -3.86150       52.17481        9.23188
N         -2.44567       51.92364       12.08826
C         -2.48676       51.34077       13.43261
C         -3.82254       51.47518       14.18416
O         -3.89520       50.97315       15.29825
C         -1.33417       51.91274       14.29085
C         -1.48125       53.35546       14.69057
N         -0.56212       53.90971       15.50699
O         -2.42458       54.02429       14.30211
H         -1.84644       52.73386       11.92544
H         -2.25453       50.25754       13.32872
H         -0.37243       51.78868       13.74551
H         -1.26909       51.32151       15.22892
H          0.25254       53.37440       15.83459
H         -0.67693       54.86878       15.83710
N         -4.90992       52.12580       13.67626
C         -6.17153       52.24349       14.40665
C         -6.09035       53.12495       15.64587
O         -6.86549       52.91144       16.56604
H         -4.86803       52.52584       12.72847
H         -6.53368       51.23002       14.68975
H         -6.94411       52.68394       13.74100
N         -5.26164       54.20541       15.68508
C         -5.15396       55.14090       16.80661
C         -4.52338       56.42590       16.31990
O         -3.36808       56.41031       15.94803
C         -4.31720       54.53710       17.97308
C         -3.77379       55.59216       18.95659
O         -5.09940       53.62729       18.69934
H         -4.71363       54.40008       14.84200
H         -6.17074       55.40512       17.16893
H         -3.40870       54.03586       17.56029
H         -5.04237       52.75467       18.23637
H         -4.59373       56.20274       19.38606
H         -3.21150       55.09473       19.77376
H         -3.04980       56.27230       18.45479
N         -5.23409       57.58537       16.34610
C         -4.72893       58.88844       15.91917
C         -3.48047       59.26421       16.69705
O         -3.51795       59.35471       17.91541
C         -5.90309       59.92496       16.01376
C         -6.79600       59.69569       14.76088
C         -5.46150       61.39669       16.12575
C         -8.14301       60.40556       14.77820
H         -6.20191       57.53344       16.69775
H         -4.42463       58.83234       14.85121
H         -6.47539       59.72539       16.94822
H         -7.01574       58.61133       14.65359
H         -6.23070       60.01430       13.85484
H         -4.86423       61.54935       17.05012
H         -4.86927       61.71793       15.25085
H         -6.34559       62.06057       16.22690
H         -8.02993       61.50537       14.83187
H         -8.68021       60.16190       13.83564
H         -8.74829       60.04026       15.63348
N         -2.33269       59.53170       16.00295
C         -1.10378       60.01510       16.61090
C         -1.11090       61.54648       16.55034
O         -2.06480       62.10095       16.04283
C          0.12368       59.39657       15.89126
C          0.19348       57.87836       15.93934
O         -0.65906       57.04723       15.29377
O          1.07577       57.36254       16.60466
H         -2.36208       59.52232       14.97454
H         -1.07415       59.73375       17.68607
H          1.02501       59.78141       16.41759
H          0.18431       59.73203       14.83502
N         -0.11269       62.30070       17.10326
C         -0.16595       63.76911       17.15261
C         -0.23420       64.42872       15.77676
O         -1.13092       65.24978       15.60824
C          0.99031       64.33582       18.00794
C          0.91016       65.83790       18.23762
C         -0.22300       66.42785       18.83639
C          1.99281       66.66340       17.88344
C         -0.26735       67.80824       19.06820
C          1.94644       68.04132       18.12563
C          0.81781       68.61329       18.71645
H          0.67610       61.81862       17.55422
H         -1.09597       64.04088       17.69801
H          1.96295       64.06400       17.55011
H          0.94283       63.85226       19.00730
H         -1.07354       65.82744       19.13000
H          2.88066       66.24085       17.43184
H         -1.14073       68.25502       19.52752
H          2.78917       68.66654       17.85977
H          0.78591       69.67958       18.90510
N          0.61574       64.16708       14.73327
C          0.50760       64.83612       13.44349
C         -0.77957       64.46708       12.71740
O         -1.22210       65.23652       11.87881
C          1.77713       64.40304       12.70189
C          2.02542       63.01715       13.25967
C          1.69703       63.19775       14.74305
H          0.52972       65.94285       13.56035
H          1.74110       64.48513       11.59375
H          2.61724       65.03405       13.07017
H          1.26477       62.34152       12.80739
H          3.03267       62.59064       13.06248
H          1.40646       62.20498       15.13772
H          2.54752       63.62161       15.31599
N         -1.44320       63.31439       13.00530
C         -2.72321       62.95674       12.39872
C         -3.80045       63.87577       12.93910
O         -4.60366       64.38561       12.17076
C         -3.05379       61.45810       12.61279
C         -1.85152       60.63338       12.11670
C         -1.99234       59.16702       12.04944
O         -3.09892       58.50225       12.37901
O         -0.99543       58.51663       11.77907
H         -1.02711       62.67619       13.69264
H         -2.64978       63.06620       11.29267
H         -3.95947       61.20840       12.01698
H         -3.26571       61.22666       13.67622
H         -1.00877       60.77876       12.82255
H         -1.54656       60.96601       11.10704
N         -3.79935       64.21139       14.25878
C         -4.71308       65.15932       14.84858
H         -5.74760       64.76473       14.81390
H         -4.42851       65.33172       15.91093
H         -4.64771       66.13074       14.31457
H         -3.07961       63.82049       14.87152
Ca        -2.31922       57.03619       13.76363
O         -5.00695       55.77021       12.87664
H         -5.70827       56.46406       12.93822
H         -5.42903       55.02289       12.38226

Ca 1.0



