%chk=holoCaM.loop4.water3.frame342.chk
%nprocshared=20
%mem=10GB
%nosave
#b3lyp/svp scf=(tight,noincore,xqc) Test 
#IOP(5/87=12) Density=Current Pop=(MK,readradii) iop(6/33=2) iop(6/42=6)

holoCaM.loop4.water3.frame342 

   -3  1 
C          2.12837       35.58087        1.49085
C          3.28524       35.76801        0.55597
O          3.77102       34.77721        0.03409
H          1.28890       35.10009        0.94440
H          2.43424       34.92340        2.33145
H          1.77591       36.54915        1.90170
N          3.76151       37.01397        0.26837
C          4.85609       37.25176       -0.66546
C          5.92350       38.12016       -0.01707
O          5.59446       39.12198        0.60340
C          4.31493       37.94926       -1.92054
C          5.23260       37.84477       -3.11993
O          4.90198       38.41270       -4.14549
O          6.32629       37.03876       -3.12637
H          3.29503       37.83189        0.68977
H          5.28538       36.28089       -0.99837
H          4.07692       39.00964       -1.68435
H          3.37026       37.45437       -2.23320
N          7.23432       37.82498       -0.19453
C          8.34646       38.58206        0.36765
C          9.08422       39.33180       -0.73472
O          9.39886       40.49595       -0.52671
C          9.29520       37.59656        1.12090
C          8.55396       36.97613        2.33526
C         10.59661       38.29088        1.57980
C          9.31339       35.82105        2.99327
H          7.46031       37.01554       -0.78229
H          7.99858       39.34506        1.10205
H          9.57826       36.78727        0.41126
H          7.57777       36.56766        2.00760
H          8.34429       37.76352        3.09227
H         11.15299       38.70504        0.71335
H         10.37429       39.11540        2.28971
H         11.28818       37.57316        2.06328
H          8.70281       35.40369        3.82115
H          9.49704       35.01571        2.25197
H         10.28012       36.14881        3.42280
N          9.43524       38.72457       -1.90486
C         10.36346       39.31977       -2.86828
C          9.75117       39.72380       -4.20616
O         10.47734       40.29805       -5.00665
C         11.55106       38.34867       -3.05975
C         11.18902       37.00428       -3.64969
O         10.04676       36.74182       -3.98962
O         12.14729       36.07139       -3.79711
H          9.09025       37.77337       -2.07796
H         10.77568       40.26377       -2.44978
H         12.00808       38.16876       -2.06268
H         12.31828       38.81760       -3.71090
N          8.44598       39.50052       -4.52561
C          7.85097       39.95957       -5.77526
C          8.53593       39.37942       -6.99277
O          9.00294       40.13703       -7.83150
H          7.83591       39.01448       -3.85574
H          7.89330       41.07054       -5.81739
H          6.78125       39.66079       -5.80052
N          8.62404       38.03258       -7.14945
C          9.23118       37.38075       -8.30885
C          8.23733       36.47380       -9.02814
O          8.64956       35.73870       -9.91487
C         10.52519       36.62881       -7.89697
C         10.42396       35.56431       -6.83344
O          9.27689       35.30635       -6.18690
O         11.42618       34.94178       -6.52300
H          8.23003       37.44277       -6.40270
H          9.56341       38.12843       -9.06210
H         11.25775       37.38042       -7.53259
H         10.95531       36.15881       -8.80860
N          6.90508       36.48675       -8.72759
C          5.93857       35.58401       -9.33271
C          6.10646       34.14479       -8.87820
O          5.35053       33.30545       -9.34592
H          6.54489       37.18020       -8.06448
H          6.00556       35.65663      -10.43921
H          4.91405       35.89565       -9.03278
N          7.04904       33.78596       -7.95671
C          7.24830       32.43225       -7.46742
C          7.03711       32.40733       -5.92899
O          5.89725       33.16520       -5.60723
C          8.68116       31.96251       -7.81342
C          9.00267       32.06420       -9.31303
C         10.40015       31.57541       -9.60354
N         11.47842       32.17472       -9.04396
O         10.56098       30.62904      -10.35935
H          7.65555       34.49983       -7.56142
H          6.51422       31.74568       -7.94552
H          8.82473       30.90732       -7.50263
H          9.40277       32.59016       -7.25044
H          8.92609       33.11850       -9.65001
H          8.26817       31.45845       -9.88781
H         11.36963       32.97849       -8.40998
H         12.43020       31.83404       -9.24533
N          6.84085       31.01897       -5.47387
C          6.80739       30.80990       -4.01375
C          8.11219       30.17599       -3.51508
O          8.55076       29.17998       -4.07446
C          5.58821       29.91442       -3.66071
C          5.44276       29.74640       -2.13840
C          4.28388       30.52168       -4.20823
H          7.40678       30.29658       -5.97142
H          6.63280       31.77380       -3.49514
H          5.72324       28.91031       -4.11985
H          5.28481       30.73344       -1.65404
H          4.57288       29.09926       -1.89924
H          6.34236       29.26963       -1.70365
H          4.11206       31.53423       -3.78173
H          4.31827       30.60314       -5.31468
H          3.41919       29.87489       -3.94790
N          8.73167       30.66350       -2.40325
C          9.95285       30.11251       -1.81105
C          9.60290       29.37580       -0.51456
O          8.43438       29.32033       -0.16780
C         10.91934       31.30794       -1.58677
C         12.26477       30.97256       -0.99665
N         13.12505       30.15313       -1.64371
O         12.58620       31.45721        0.07863
H          8.28248       31.44605       -1.90785
H         10.42333       29.37105       -2.49284
H         10.41413       32.04429       -0.92114
H         11.10621       31.80220       -2.56220
H         12.87692       29.73970       -2.55347
H         14.04319       29.93134       -1.23023
N         10.55534       28.77100        0.25294
C         10.27897       28.13858        1.54470
C          9.63704       29.13120        2.50291
O          8.58529       28.83235        3.05053
C         11.59173       27.64695        2.20098
C         12.23109       26.46670        1.51419
C         11.77216       25.16608        1.78548
C         13.32697       26.64143        0.65352
C         12.40455       24.05886        1.21122
C         13.94792       25.53355        0.06756
C         13.49267       24.23725        0.35083
O         14.09565       23.15903       -0.18982
H         11.52863       28.78233       -0.07391
H          9.59132       27.27223        1.41294
H         11.40861       27.34686        3.25738
H         12.31202       28.49288        2.24914
H         10.94212       25.00764        2.46327
H         13.70092       27.63374        0.43541
H         12.05476       23.06043        1.44357
H         14.78912       25.68324       -0.59725
H         14.85775       23.23755       -0.78131
N         10.24161       30.32594        2.76923
C          9.75423       31.27921        3.77069
C          8.39681       31.88968        3.43959
O          7.88067       32.62988        4.26690
C         10.76212       32.44312        3.94871
C         12.18077       32.01702        4.37537
C         12.26775       31.40044        5.74736
O         13.35285       31.02932        6.16379
O         11.18349       31.27223        6.53663
H         11.11378       30.53400        2.26511
H          9.64802       30.73233        4.72972
H         10.37935       33.16625        4.70295
H         10.84015       32.97790        2.97620
H         12.82277       32.92351        4.37436
H         12.60970       31.31070        3.63698
N          7.75135       31.62756        2.27351
C          6.46150       32.19059        1.91435
C          5.40700       31.12204        2.09829
O          4.46717       31.33772        2.85064
C          6.50846       32.68030        0.45849
C          7.57689       33.76383        0.23756
C          7.68548       34.17446       -1.20075
O          8.64196       35.04142       -1.57975
O          6.93326       33.71030       -2.03791
H          8.17750       30.99004        1.59500
H          6.19739       33.05278        2.56887
H          5.51425       33.06814        0.16454
H          6.74699       31.81881       -0.19672
H          8.56903       33.37113        0.54206
H          7.33432       34.65468        0.84693
N          5.52339       29.91868        1.47478
C          4.58090       28.84380        1.67381
H          3.57314       29.15386        1.33016
H          4.90394       27.95298        1.09326
H          4.54733       28.56863        2.74974
H          6.32231       29.74316        0.85704
Ca         6.38773       35.04589       -4.30927
O          3.58873       34.99034       -3.46128
H          3.65690       34.39317       -4.24792
H          4.06912       34.50889       -2.74162
O          9.49694       33.32724       -4.04194
H         10.28462       33.81531       -3.69410
H          9.82891       32.87357       -4.85634
O          4.94526       36.44939       -6.19476
H          5.55509       37.22599       -6.12575
H          4.18308       36.77628       -6.73147

Ca 1.0



