%chk=holoCaM.loop4.water3.frame126.chk
%nprocshared=20
%mem=10GB
%nosave
#b3lyp/svp scf=(tight,noincore,xqc) Test 
#IOP(5/87=12) Density=Current Pop=(MK,readradii) iop(6/33=2) iop(6/42=6)

holoCaM.loop4.water3.frame126 

   -3  1 
C         97.47076      104.22571       22.70580
C         96.63581      103.07383       22.22519
O         97.19831      102.05909       21.83952
H         98.13628      104.58319       21.89538
H         96.83810      105.06957       23.05458
H         98.09002      103.88782       23.56545
N         95.27661      103.14047       22.28532
C         94.40679      102.00349       22.02465
C         93.26643      102.36393       21.07503
O         92.61699      103.38106       21.27374
C         93.89261      101.52637       23.38867
C         92.99604      100.34479       23.26245
O         93.37984       99.34708       22.67403
O         91.76385      100.38533       23.80231
H         94.84087      103.99819       22.65936
H         94.97834      101.15007       21.59416
H         93.35888      102.34236       23.92128
H         94.77126      101.22423       24.00182
N         92.92159      101.50699       20.06550
C         91.83479      101.73915       19.11065
C         90.62404      100.84922       19.40456
O         89.55672      101.15766       18.89087
C         92.35761      101.43286       17.65866
C         93.59822      102.26711       17.26282
C         91.28131      101.52278       16.55422
C         93.34867      103.76489       17.09970
H         93.44027      100.62153       19.98778
H         91.48067      102.78982       19.19406
H         92.69813      100.37229       17.66143
H         93.98901      101.87788       16.29617
H         94.38906      102.12484       18.02334
H         90.82982      102.53416       16.50634
H         91.72603      101.27238       15.56695
H         90.47368      100.78103       16.71149
H         94.29984      104.25662       16.80513
H         92.60802      103.96064       16.29749
H         92.99876      104.21216       18.05105
N         90.71287       99.68957       20.12378
C         89.66302       98.66834       20.03963
C         89.56440       97.73868       21.26644
O         88.68759       96.88611       21.26892
C         89.85708       97.87505       18.72257
C         91.18245       97.18146       18.70139
O         92.32807       97.88942       18.77466
O         91.22478       95.96351       18.69420
H         91.63791       99.41177       20.47058
H         88.67143       99.16738       19.97134
H         89.80688       98.55571       17.84624
H         89.03760       97.13061       18.61932
N         90.36755       97.87376       22.36154
C         90.20632       97.12949       23.60997
C         90.60322       95.65574       23.59251
O         90.48199       95.02721       24.63414
H         91.06315       98.61694       22.36500
H         89.15336       97.23209       23.95103
H         90.84408       97.61291       24.38181
N         91.07757       95.02933       22.48056
C         91.42316       93.59595       22.42591
C         92.66034       93.16430       23.23490
O         92.95005       91.97530       23.23678
C         91.65001       93.17676       20.95398
C         92.76234       93.95032       20.29658
O         93.41069       94.90749       20.98895
O         92.99542       93.79254       19.10979
H         91.12800       95.58297       21.61469
H         90.54829       93.02085       22.80145
H         90.71419       93.38187       20.38886
H         91.85710       92.08775       20.88612
N         93.45154       94.03987       23.91418
C         94.65552       93.64174       24.64273
C         95.86129       93.29384       23.76840
O         96.91409       93.03615       24.33596
H         93.17972       95.02607       23.95083
H         94.41724       92.80798       25.33842
H         94.97962       94.50616       25.26141
N         95.81343       93.30790       22.40513
C         96.96261       93.10861       21.52303
C         97.18081       94.34760       20.65775
O         96.41005       95.29542       20.75016
C         96.70122       91.90730       20.58523
C         96.53831       90.57775       21.32763
C         96.35084       89.44667       20.34544
N         95.28131       89.41549       19.51494
O         97.17784       88.54826       20.29755
H         94.92165       93.49128       21.94882
H         97.89128       92.92626       22.10783
H         97.55578       91.78668       19.88582
H         95.79157       92.11691       19.97974
H         95.66561       90.61696       22.01298
H         97.45533       90.39278       21.92974
H         94.56740       90.15772       19.54112
H         95.16429       88.64316       18.84205
N         98.20132       94.38121       19.75259
C         98.39341       95.44505       18.77230
C         98.22185       94.83240       17.39050
O         98.83675       93.81248       17.10478
C         99.78509       96.11654       18.91657
C         99.92444       97.28322       17.91629
C        100.00233       96.65164       20.34032
H         98.85568       93.58393       19.71460
H         97.63393       96.24832       18.91063
H        100.58196       95.36972       18.70712
H         99.14351       98.05181       18.09881
H        100.91880       97.76707       18.01258
H         99.82401       96.92895       16.87007
H         99.22733       97.39680       20.60971
H         99.96843       95.82442       21.07882
H        100.99894       97.13694       20.41831
N         97.41371       95.42605       16.47313
C         97.13668       94.89215       15.14341
C         97.83200       95.75465       14.10649
O         98.45762       96.73288       14.48250
C         95.59755       94.86828       14.96838
C         95.09206       94.28770       13.67743
N         95.34818       93.00090       13.34977
O         94.42441       94.98336       12.92649
H         96.99736       96.33494       16.71582
H         97.54555       93.86330       15.04709
H         95.22035       95.91229       15.05875
H         95.15584       94.26421       15.78938
H         95.89910       92.39764       13.97676
H         94.99134       92.60686       12.46692
N         97.80891       95.43951       12.78169
C         98.47945       96.25086       11.77375
C         97.95712       97.68277       11.77878
O         98.75915       98.60478       11.80654
C         98.39414       95.64496       10.34555
C         97.04908       95.79380        9.66159
C         96.91240       96.73221        8.62173
C         95.92750       95.03835       10.04395
C         95.67946       96.92973        7.99905
C         94.69321       95.23594        9.41686
C         94.56281       96.18527        8.39860
O         93.36379       96.37412        7.81255
H         97.33647       94.57815       12.48959
H         99.56587       96.26224       12.02177
H         98.73063       94.58552       10.33189
H         99.14196       96.21260        9.74813
H         97.75767       97.32985        8.30327
H         95.99484       94.29644       10.82075
H         95.59400       97.66710        7.21105
H         93.83550       94.65264        9.72708
H         93.23309       97.02906        7.11181
N         96.61433       97.93335       11.75630
C         96.04316       99.27535       11.69068
C         96.50781      100.13235       12.85777
O         96.99525      101.23159       12.63646
C         94.49437       99.21888       11.57134
C         93.73423       98.78367       12.83792
C         92.25978       98.66799       12.57189
O         91.62409       99.63326       12.17784
O         91.62825       97.49722       12.78242
H         95.96958       97.13024       11.77176
H         96.39128       99.74307       10.74256
H         94.24371       98.52685       10.73548
H         94.12739      100.23023       11.29025
H         93.87546       99.54222       13.63746
H         94.10918       97.80304       13.19717
N         96.42896       99.65571       14.13034
C         96.85831      100.39039       15.31604
C         98.32053      100.79741       15.22595
O         98.63133      101.93893       15.53538
C         96.58730       99.52479       16.56290
C         96.93282      100.23213       17.87892
C         96.48462       99.40995       19.04834
O         97.37629       98.98517       19.95789
O         95.30520       99.13469       19.18742
H         96.05646       98.70217       14.26124
H         96.23972      101.30937       15.41905
H         97.15808       98.57614       16.49883
H         95.49929       99.28398       16.56521
H         96.42546      101.21397       17.92993
H         98.02833      100.40379       17.93974
N         99.26362       99.92525       14.77801
C        100.67168      100.24305       14.66411
H        101.26045       99.49368       15.23328
H        100.97412      100.19864       13.59623
H        100.91125      101.25217       15.05848
H         98.96941       98.99647       14.46655
Ca        93.85171       96.81624       19.98440
O         94.77883       96.18051       17.59505
H         94.92029       95.30148       18.03008
H         93.85569       96.14658       17.24306
O         96.52713       98.27602       22.72559
H         97.43305       98.63786       22.55984
H         96.20691       98.77848       23.51582
O         94.20104       97.25876       24.26378
H         94.27084       96.99105       25.21274
H         93.22748       97.30198       24.09171

Ca 1.0



