%chk=holoCaM.loop4.water3.frame433.chk
%nprocshared=20
%mem=10GB
%nosave
#b3lyp/svp scf=(tight,noincore,xqc) Test 
#IOP(5/87=12) Density=Current Pop=(MK,readradii) iop(6/33=2) iop(6/42=6)

holoCaM.loop4.water3.frame433 

   -3  1 
C        108.89625       70.87840       38.72688
C        109.35055       69.47770       39.01575
O        108.73130       68.80616       39.82663
H        107.98809       71.13039       39.31582
H        109.70256       71.59803       38.97362
H        108.64521       70.96761       37.64736
N        110.40474       68.95388       38.33060
C        110.82786       67.56289       38.43568
C        112.34254       67.46336       38.60956
O        113.07366       68.04674       37.82168
C        110.34861       66.84641       37.16518
C        110.67717       65.38677       37.17947
O        111.32570       64.90220       36.26722
O        110.24578       64.60439       38.18771
H        110.85803       69.54359       37.61493
H        110.32160       67.05855       39.28958
H        110.78399       67.32746       36.26237
H        109.24132       66.94162       37.10885
N        112.87433       66.69440       39.60625
C        114.30969       66.54846       39.87824
C        114.80598       65.12340       39.57738
O        116.01041       64.91261       39.59606
C        114.55043       66.90458       41.39279
C        114.08911       68.35543       41.69351
C        116.00822       66.69023       41.86068
C        114.06977       68.69480       43.18932
H        112.22185       66.18244       40.21446
H        114.89088       67.23247       39.22131
H        113.91423       66.21443       41.99333
H        113.04757       68.49233       41.33672
H        114.73503       69.07995       41.15246
H        116.70817       67.32642       41.28061
H        116.12527       66.90741       42.93909
H        116.31146       65.62911       41.78235
H        113.66516       69.71826       43.33101
H        113.41854       67.98011       43.73733
H        115.08325       68.67859       43.63537
N        113.95044       64.08674       39.34891
C        114.38495       62.68385       39.38499
C        113.65558       61.76016       38.39692
O        114.03586       60.59986       38.31645
C        114.26281       62.13945       40.83542
C        112.87157       62.22726       41.40992
O        111.91304       62.89255       40.74397
O        112.61932       61.71353       42.48733
H        112.95170       64.29711       39.36344
H        115.46209       62.62297       39.11309
H        114.94362       62.70155       41.51102
H        114.58895       61.07634       40.83987
N        112.63331       62.18443       37.60023
C        111.99699       61.35842       36.57846
C        111.15819       60.18074       37.06412
O        110.64723       59.47378       36.20680
H        112.33675       63.16098       37.65033
H        112.78745       60.98049       35.89391
H        111.31832       62.00374       35.97988
N        110.96232       59.88433       38.38121
C        110.20408       58.70285       38.82535
C        108.71883       58.69851       38.43680
O        108.11441       57.64060       38.53963
C        110.35057       58.50282       40.35690
C        109.89696       59.69750       41.14926
O        109.36553       60.74822       40.50754
O        110.09802       59.75293       42.35072
H        111.41670       60.48010       39.08704
H        110.66799       57.81873       38.33439
H        111.43126       58.36039       40.57368
H        109.80569       57.59643       40.69712
N        108.04865       59.82308       38.04747
C        106.63195       59.82757       37.67742
C        105.71832       60.41115       38.75028
O        104.52811       60.53222       38.49146
H        108.54620       60.72169       38.04193
H        106.26665       58.79808       37.47491
H        106.52752       60.39841       36.72955
N        106.18248       60.73675       39.98903
C        105.37788       61.22056       41.10773
C        105.89369       62.57901       41.57595
O        106.83304       63.08600       40.97322
C        105.47637       60.19795       42.26151
C        105.01549       58.78939       41.84102
C        105.10815       57.78057       42.96201
N        104.75856       56.49329       42.73708
O        105.50014       58.11209       44.07200
H        107.16819       60.58612       40.18620
H        104.31075       61.32907       40.81129
H        104.84837       60.53587       43.11273
H        106.53458       60.13887       42.60337
H        105.65322       58.42472       41.00686
H        103.96223       58.83593       41.48983
H        104.43069       56.19237       41.80756
H        104.81945       55.79431       43.49240
N        105.33348       63.23764       42.63723
C        105.79078       64.55324       43.09178
C        106.25366       64.48541       44.54992
O        105.43714       64.20236       45.41816
C        104.65639       65.60334       42.91493
C        105.15938       67.01893       43.24324
C        104.09139       65.59403       41.48372
H        104.53224       62.80822       43.12728
H        106.64381       64.88605       42.46530
H        103.81775       65.35170       43.60214
H        105.52822       67.07682       44.28622
H        105.98453       67.30692       42.55576
H        104.33548       67.75588       43.13450
H        104.88291       65.83270       40.74349
H        103.65620       64.60243       41.23690
H        103.27517       66.34235       41.38949
N        107.55670       64.72625       44.89001
C        108.06255       64.68034       46.26926
C        107.58301       65.88941       47.07169
O        107.00419       66.79754       46.49644
C        109.61621       64.63785       46.24196
C        110.29492       64.44221       47.57435
N        110.05286       63.34038       48.32131
O        111.09616       65.27445       47.97145
H        108.22620       64.90454       44.12751
H        107.69318       63.74011       46.73411
H        109.99169       65.56680       45.76642
H        109.94262       63.78749       45.62311
H        109.39195       62.61851       48.00128
H        110.53140       63.20877       49.22449
N        107.78831       65.96318       48.42060
C        107.39241       67.11957       49.22684
C        108.25911       68.34848       48.97527
O        107.88505       69.41683       49.43995
C        107.42800       66.78043       50.73656
C        108.82936       66.52403       51.25291
C        109.33318       65.21627       51.33366
C        109.64655       67.59684       51.65537
C        110.63442       64.98668       51.78870
C        110.94357       67.36438       52.11963
C        111.44368       66.05686       52.18311
O        112.69556       65.81713       52.62188
H        108.18625       65.14304       48.89144
H        106.33618       67.35448       48.96557
H        106.78652       65.88976       50.91067
H        106.97399       67.60621       51.32838
H        108.72457       64.37374       51.03194
H        109.28084       68.61509       51.61351
H        111.01376       63.97410       51.83316
H        111.55870       68.20139       52.42631
H        113.28591       66.52935       52.90646
N        109.44562       68.27109       48.30194
C        110.32098       69.41693       48.07503
C        110.25665       69.84176       46.61704
O        110.66169       70.95454       46.31109
C        111.74219       69.08152       48.58551
C        112.75317       70.23010       48.45439
C        114.06719       69.85616       49.08404
O        114.12977       69.57380       50.40014
O        115.08550       69.81966       48.41170
H        109.75066       67.36457       47.92714
H        109.94145       70.28839       48.65176
H        112.13511       68.19241       48.04338
H        111.65135       68.81593       49.66154
H        112.36674       71.13704       48.96532
H        112.91633       70.46290       47.38039
N        109.68517       69.04289       45.67119
C        109.35075       69.50884       44.33722
C        108.14161       70.41438       44.46040
O        108.20730       71.56744       44.05919
C        109.04568       68.30903       43.41638
C        110.30576       67.44535       43.22370
C        110.06471       66.22781       42.38284
O        110.97201       65.43256       42.20708
O        108.86020       65.98691       41.83601
H        109.39629       68.08702       45.91400
H        110.20920       70.05728       43.88701
H        108.70891       68.68119       42.42644
H        108.23148       67.68999       43.85444
H        110.67865       67.10234       44.20884
H        111.09946       68.05603       42.74589
N        107.00509       69.95262       45.05489
C        105.83148       70.77078       45.25642
H        105.04920       70.17960       45.78155
H        106.08597       71.64975       45.88585
H        105.42861       71.10685       44.27929
H        106.97526       68.98567       45.40194
Ca       109.73818       62.83124       41.09611
O        109.30594       62.56189       43.71221
H        108.90915       61.65824       43.69104
H        110.28567       62.41717       43.67697
O        107.81120       63.07989       38.04392
H        108.16551       63.05942       37.11996
H        106.82856       63.03424       37.93753
O        107.56058       65.50390       39.39290
H        107.73230       66.47665       39.38423
H        106.64507       65.41077       39.03011

Ca 1.0



