%chk=holoCaM.loop2.water3.frame390.chk
%nprocshared=20
%mem=10GB
%nosave
#b3lyp/svp scf=(tight,noincore,xqc) Test 
#IOP(5/87=12) Density=Current Pop=(MK,readradii) iop(6/33=2) iop(6/42=6)

holoCaM.loop2.water3.frame390 

   -2  1 
C        112.54529       62.82979       95.98706
C        113.53551       63.92168       96.26491
O        113.26520       65.07614       95.96475
H        111.62725       63.23198       95.50955
H        113.00341       62.07317       95.31686
H        112.26211       62.33974       96.94374
N        114.71000       63.61537       96.87921
C        115.70032       64.61361       97.26180
C        116.32129       65.26400       96.02442
O        116.96804       64.56931       95.25282
C        116.77735       63.92255       98.14004
C        117.90284       64.75667       98.69842
O        117.91616       66.09862       98.64979
O        118.84484       64.18108       99.20770
H        114.86901       62.62909       97.13892
H        115.15549       65.35291       97.86301
H        117.24651       63.13963       97.50633
H        116.28441       63.41822       98.99962
N        116.13323       66.59068       95.75471
C        116.65293       67.24030       94.54945
C        118.16820       67.37746       94.53357
O        118.71400       67.58097       93.45753
C        116.05954       68.64916       94.39492
H        115.54197       67.13821       96.39502
H        116.32671       66.64362       93.66846
H        116.36289       69.29478       95.24831
H        116.41566       69.12348       93.45382
H        114.95108       68.60065       94.35935
N        118.89286       67.41989       95.68897
C        120.32294       67.72303       95.73193
C        121.15583       66.63275       96.40003
O        122.37059       66.77214       96.40536
C        120.55087       69.12109       96.36185
C        119.99957       69.31534       97.75035
O        118.79940       69.23807       97.95750
O        120.81853       69.67514       98.75567
H        118.39524       67.30602       96.57825
H        120.72672       67.79758       94.69834
H        120.06619       69.87978       95.71012
H        121.64128       69.33978       96.36827
N        120.61233       65.48762       96.90314
C        121.43200       64.39368       97.40615
C        122.17245       64.65177       98.71284
O        123.04728       63.85102       99.01064
H        119.60196       65.32856       96.82052
H        122.17212       64.13829       96.61691
H        120.80561       63.48688       97.55295
N        121.85034       65.65783       99.58528
C        122.55561       65.85087      100.86158
C        121.74506       65.34139      102.06171
O        122.14554       65.60391      103.18810
C        123.00456       67.32055      101.07780
C        123.96731       67.83791      100.03639
N        123.56029       68.07772       98.77283
O        125.12286       68.08133      100.35129
H        121.04410       66.26404       99.37495
H        123.49373       65.25289      100.88461
H        123.53379       67.36385      102.05567
H        122.13972       68.00620      101.14611
H        122.58209       67.92135       98.51040
H        124.21361       68.45060       98.06786
N        120.69134       64.48508      101.91130
C        120.04593       63.81357      103.03542
C        119.02078       64.64079      103.79024
O        118.49751       64.13404      104.77233
H        120.44168       64.16737      100.96984
H        120.82966       63.44115      103.73150
H        119.50443       62.92173      102.65343
N        118.64901       65.88663      103.38625
C        117.65029       66.70792      104.07052
C        116.45287       66.98325      103.16396
O        116.62915       67.22941      101.98097
C        118.28570       68.02509      104.57194
C        119.32665       67.77156      105.67484
O        118.84077       68.76705      103.51425
H        119.09279       66.27693      102.55041
H        117.25917       66.19099      104.97510
H        117.48673       68.64401      105.03650
H        119.72470       68.37596      103.28684
H        118.85182       67.25082      106.53403
H        120.16409       67.14636      105.29870
H        119.73579       68.73897      106.03489
N        115.19412       67.00866      103.69252
C        113.96330       67.24683      102.93698
C        113.41175       68.62616      103.27393
O        113.37715       69.01383      104.43386
C        112.94034       66.10272      103.23247
C        113.38813       64.75079      102.60776
C        111.49732       66.44174      102.80297
C        113.32741       64.69230      101.07056
H        115.09572       66.87657      104.71140
H        114.16049       67.25910      101.84782
H        112.90020       65.96842      104.33685
H        112.72295       63.94641      102.99104
H        114.42210       64.51373      102.93744
H        111.12141       67.32193      103.36495
H        111.43062       66.66987      101.72035
H        110.81916       65.59435      103.04239
H        113.98565       65.44568      100.59630
H        113.65610       63.69028      100.72458
H        112.28897       64.83795      100.70550
N        112.90464       69.39424      102.26516
C        112.36616       70.74201      102.40430
C        110.85736       70.71660      102.21856
O        110.30513       69.64488      102.02928
C        113.00509       71.64931      101.32495
C        114.50281       71.71010      101.42081
O        115.17092       70.69851      101.28311
O        115.11857       72.89128      101.61706
H        112.86839       68.98630      101.32256
H        112.57715       71.14970      103.41730
H        112.60821       72.68136      101.41443
H        112.73747       71.26634      100.31350
N        110.11204       71.85515      102.28768
C        108.66120       71.87219      102.11699
C        108.21263       71.42347      100.71770
O        107.40913       70.50627      100.66274
C        108.07615       73.26223      102.44709
C        106.56243       73.24020      102.44199
C        105.86125       72.44234      103.36639
C        105.83705       74.01088      101.51731
C        104.46432       72.41403      103.36147
C        104.43797       73.97814      101.51572
C        103.75275       73.18054      102.43647
H        110.59306       72.74326      102.50306
H        108.23758       71.16774      102.86754
H        108.46117       74.01102      101.72736
H        108.41143       73.57834      103.45852
H        106.39348       71.84284      104.09388
H        106.35164       74.63140      100.79459
H        103.93398       71.79716      104.07585
H        103.88362       74.57066      100.79973
H        102.67060       73.15638      102.43434
N        108.65285       71.99824       99.54605
C        108.18627       71.59001       98.21896
C        108.45618       70.12231       97.95136
O        107.57984       69.43826       97.43898
C        108.92929       72.53973       97.26269
C        110.18783       72.89921       98.02192
C        109.65719       73.04155       99.44441
H        107.09599       71.75968       98.08032
H        109.07383       72.16650       96.22532
H        108.34227       73.48390       97.20714
H        110.88538       72.03953       97.97557
H        110.73571       73.78898       97.64487
H        110.51366       72.93263      100.13213
H        109.15929       74.02687       99.57135
N        109.62514       69.55888       98.33023
C        109.96022       68.15158       98.15704
C        108.94947       67.27919       98.88501
O        108.39583       66.37556       98.27504
C        111.40204       67.94339       98.65095
C        112.36560       68.73921       97.73238
C        113.77456       68.75127       98.20972
O        114.10920       68.15352       99.35779
O        114.64438       69.24529       97.51092
H        110.30031       70.16109       98.81992
H        109.94123       67.87592       97.07819
H        111.68162       66.86604       98.62603
H        111.46959       68.29410       99.70105
H        112.07079       69.79938       97.62007
H        112.34011       68.26523       96.72588
N        108.60157       67.54570      100.17091
C        107.57421       66.81268      100.87662
H        106.61336       66.88203      100.32209
H        107.86879       65.74965      100.98927
H        107.42293       67.25534      101.88543
H        109.04253       68.33269      100.64884
Ca       116.00022       67.07128       99.14026
O        119.01375       68.02861      100.54272
H        119.97485       68.14418      100.72813
H        118.89328       67.05101      100.55387
O        116.95485       71.78322       98.30906
H        116.64887       71.69268       99.24533
H        116.53066       72.61977       97.99281
O        118.31557       70.71362      101.21062
H        118.13110       71.67133      101.37614
H        117.66300       70.23455      101.77988

Ca 1.0



