%chk=holoCaM.loop4.water3.frame440.chk
%nprocshared=20
%mem=10GB
%nosave
#b3lyp/svp scf=(tight,noincore,xqc) Test 
#IOP(5/87=12) Density=Current Pop=(MK,readradii) iop(6/33=2) iop(6/42=6)

holoCaM.loop4.water3.frame440 

   -3  1 
C         21.98252       61.68756       45.06048
C         22.61282       60.89271       46.16293
O         22.01829       60.77079       47.22389
H         21.00189       62.09814       45.38353
H         22.64811       62.52834       44.77511
H         21.82121       61.03075       44.17991
N         23.84000       60.33011       45.98085
C         24.50178       59.52188       47.00050
C         25.93766       59.24891       46.57477
O         26.14230       58.74364       45.47861
C         23.74229       58.18995       47.20783
C         24.21610       57.43025       48.41538
O         23.74607       56.33087       48.65841
O         25.10235       57.97386       49.27063
H         24.32132       60.50817       45.08485
H         24.50363       60.10061       47.95132
H         23.85200       57.56195       46.29695
H         22.65979       58.36999       47.36476
N         26.98253       59.57072       47.39189
C         28.38224       59.47391       46.98286
C         29.10838       58.35529       47.74233
O         30.27512       58.12696       47.45815
C         29.08203       60.86095       47.22735
C         28.21766       62.08897       46.82421
C         30.47172       60.96495       46.56272
C         27.86416       62.19700       45.34328
H         26.78099       59.92773       48.33706
H         28.43505       59.23050       45.89881
H         29.22201       60.96700       48.32718
H         28.75267       63.01708       47.12494
H         27.27172       62.07483       47.39930
H         30.92371       61.95619       46.77940
H         31.18564       60.21432       46.94494
H         30.39528       60.84192       45.46227
H         28.77523       62.30820       44.72252
H         27.28708       61.31226       45.00960
H         27.23562       63.10134       45.19381
N         28.50411       57.61122       48.72071
C         29.26943       56.69713       49.57155
C         28.46463       55.59078       50.26827
O         29.09317       54.80379       50.96386
C         30.06634       57.52848       50.60847
C         29.21284       58.37294       51.52411
O         27.99751       58.40021       51.41779
O         29.80726       59.12668       52.46724
H         27.53075       57.81071       48.95984
H         29.99613       56.14414       48.93522
H         30.75862       58.21298       50.07433
H         30.68460       56.84680       51.23018
N         27.11810       55.41275       50.12210
C         26.40504       54.29732       50.73366
C         26.33087       54.32281       52.25310
O         25.80832       53.36520       52.80537
H         26.57554       56.02229       49.50431
H         26.88901       53.35226       50.40722
H         25.35764       54.28655       50.35890
N         26.77939       55.37461       52.99792
C         26.66619       55.43934       54.45743
C         25.23867       55.17870       54.94497
O         25.07079       54.33164       55.81095
C         27.24878       56.76439       55.02807
C         26.73926       58.05391       54.43013
O         25.91378       58.04411       53.36979
O         27.14706       59.11821       54.86467
H         27.19850       56.17442       52.50925
H         27.29585       54.63328       54.89868
H         28.34817       56.76179       54.85947
H         27.07831       56.77623       56.12701
N         24.16557       55.81813       54.40459
C         22.78394       55.58275       54.79361
C         22.07599       56.85337       55.22530
O         20.87140       56.79348       55.43069
H         24.31169       56.46956       53.63353
H         22.69863       54.82911       55.60491
H         22.25596       55.18465       53.90056
N         22.74053       58.03431       55.38685
C         22.09643       59.30061       55.73231
C         22.37090       60.32574       54.64198
O         23.00647       59.96611       53.65973
C         22.52206       59.74222       57.14784
C         24.03742       59.88799       57.37327
C         24.36449       60.24430       58.80758
N         25.65430       60.34401       59.20035
O         23.47373       60.42879       59.62570
H         23.76091       58.05598       55.24785
H         20.99114       59.18125       55.77215
H         22.14927       58.96524       57.85231
H         22.01462       60.69683       57.40309
H         24.45009       60.66599       56.69630
H         24.53749       58.92090       57.15889
H         26.42154       60.17963       58.53292
H         25.88539       60.57344       60.17871
N         21.87966       61.60069       54.70154
C         22.00483       62.53508       53.58270
C         22.83278       63.74892       53.98109
O         22.41057       64.51425       54.83826
C         20.59608       62.95971       53.07243
C         20.69853       63.77569       51.77219
C         19.68979       61.74295       52.82342
H         21.35402       61.90416       55.53596
H         22.51461       62.03175       52.73237
H         20.10095       63.58302       53.85054
H         21.30087       64.68946       51.92277
H         21.16829       63.16991       50.96684
H         19.68928       64.09216       51.43300
H         20.13231       61.06720       52.06166
H         19.53166       61.17270       53.76323
H         18.68965       62.07844       52.47365
N         24.03130       63.98714       53.37441
C         24.85789       65.17187       53.62036
C         24.16511       66.41970       53.07835
O         23.12422       66.29567       52.46146
C         26.22553       64.95318       52.92041
C         27.26764       66.02083       53.12635
N         27.70979       66.33346       54.36548
O         27.74293       66.58950       52.15591
H         24.37424       63.28430       52.70345
H         25.02231       65.26754       54.71548
H         26.04876       64.82452       51.83137
H         26.66037       64.01534       53.31090
H         27.33559       65.85355       55.19591
H         28.43261       67.05747       54.49238
N         24.67896       67.66309       53.28127
C         24.11734       68.87699       52.68534
C         24.43329       68.94925       51.19326
O         23.51241       69.16401       50.41668
C         24.50687       70.12979       53.50542
C         25.98235       70.31977       53.74765
C         26.52006       69.99578       55.00661
C         26.82913       70.82153       52.75018
C         27.88454       70.14042       55.25298
C         28.19594       70.97915       53.00506
C         28.72871       70.62865       54.25380
O         30.04655       70.75626       54.50419
H         25.50017       67.74794       53.89133
H         23.00716       68.85834       52.79107
H         24.01691       69.98456       54.49463
H         24.05961       71.05458       53.07940
H         25.88456       69.60935       55.79444
H         26.43270       71.09475       51.78026
H         28.28393       69.86814       56.22152
H         28.84273       71.36793       52.23048
H         30.66732       71.07803       53.83556
N         25.69032       68.70353       50.70704
C         26.00644       68.67854       49.27048
C         25.25894       67.57656       48.51115
O         25.34457       67.55083       47.29106
C         27.52406       68.46971       49.01557
C         28.45263       69.53786       49.62019
C         28.28743       70.92783       49.05759
O         27.48620       71.16901       48.16883
O         29.06402       71.92154       49.52850
H         26.43750       68.51637       51.38579
H         25.69144       69.65178       48.84132
H         27.72087       68.43673       47.92071
H         27.81480       67.48269       49.43862
H         29.50275       69.22884       49.42965
H         28.31363       69.56312       50.71366
N         24.49377       66.65305       49.15452
C         23.68816       65.63782       48.49183
C         22.23986       66.09364       48.47715
O         21.60411       66.00797       47.43603
C         23.84265       64.29472       49.22855
C         25.27813       63.75191       49.12360
C         25.45867       62.47804       49.89870
O         26.55259       61.93972       49.93673
O         24.43020       61.93004       50.56880
H         24.43220       66.67869       50.17768
H         23.99844       65.48479       47.43334
H         23.15082       63.54531       48.78341
H         23.56779       64.43062       50.29895
H         25.99647       64.49942       49.51855
H         25.51816       63.56195       48.05570
N         21.66910       66.65406       49.57755
C         20.31566       67.15471       49.59773
H         19.60296       66.32027       49.44151
H         20.10831       67.62578       50.58386
H         20.18483       67.92545       48.80896
H         22.22193       66.77678       50.42562
Ca        25.30703       59.81466       52.13291
O         27.40115       61.68805       53.06911
H         27.69752       60.79055       52.78046
H         26.68854       61.51945       53.73662
O         23.29034       57.38569       51.53006
H         22.41733       57.03855       51.22009
H         23.92951       56.65244       51.34271
O         22.47803       59.90565       50.17008
H         21.88681       59.34220       49.61166
H         22.12737       60.82393       50.05341

Ca 1.0



