%chk=holoCaM-CaMKII.loop4.water2.frame41.chk
%nprocshared=20
%mem=10GB
%nosave
#b3lyp/svp scf=(tight,noincore,xqc) Test 
#IOP(5/87=12) Density=Current Pop=(MK,readradii) iop(6/33=2) iop(6/42=6)

holoCaM-CaMKII.loop4.water2.frame41 

   -3  1 
C         -0.33091       68.80857       -4.44652
C          0.50462       67.97361       -5.36495
O          1.53633       68.45290       -5.81502
H         -1.22667       68.25398       -4.09812
H          0.27762       69.08944       -3.56034
H         -0.65518       69.72850       -4.97428
N          0.14679       66.69281       -5.66349
C          0.99852       65.84206       -6.47465
C          1.03834       66.33032       -7.91498
O         -0.00009       66.38192       -8.56081
C          0.51921       64.38627       -6.45640
C          1.59349       63.47901       -6.97191
O          1.34975       62.29730       -7.12770
O          2.86370       63.92179       -7.11790
H         -0.70800       66.29769       -5.24166
H          2.00519       65.86980       -5.99714
H         -0.41247       64.28409       -7.05568
H          0.29850       64.05391       -5.41909
N          2.21110       66.72701       -8.47045
C          2.30206       67.30202       -9.80769
C          2.18756       66.22995      -10.88960
O          1.34396       66.38146      -11.76241
C          3.59485       68.16194       -9.95590
C          3.75155       69.20898       -8.80881
C          3.63900       68.86598      -11.32408
C          2.57562       70.17712       -8.63520
H          3.05005       66.69529       -7.87703
H          1.46457       68.02226       -9.94148
H          4.48121       67.50058       -9.91414
H          4.67856       69.79720       -8.97886
H          3.88779       68.69347       -7.83935
H          2.76814       69.54018      -11.45895
H          4.57158       69.46282      -11.41493
H          3.63531       68.12322      -12.14847
H          2.79371       70.86789       -7.79358
H          2.41114       70.78186       -9.54844
H          1.64337       69.63261       -8.37824
N          2.99745       65.12601      -10.90294
C          2.98484       64.13776      -11.98860
C          2.13204       62.90252      -11.68911
O          2.02762       62.04914      -12.55956
C          4.42419       63.81515      -12.45919
C          5.28942       63.09155      -11.46391
O          4.81211       62.71963      -10.26581
O          6.44332       62.82154      -11.75594
H          3.64299       64.98353      -10.11460
H          2.49377       64.59166      -12.87772
H          4.92502       64.77065      -12.72948
H          4.37333       63.18750      -13.37562
N          1.39182       62.79643      -10.54742
C          0.33930       61.80014      -10.37293
C          0.75998       60.36317      -10.11060
O         -0.13795       59.54715       -9.95528
H          1.44705       63.54397       -9.84151
H         -0.32927       61.83296      -11.26063
H         -0.27324       62.10340       -9.49557
N          2.05887       59.96326       -9.99308
C          2.43452       58.58181       -9.63185
C          1.88692       58.12274       -8.26763
O          1.99216       56.93620       -7.98951
C          3.98035       58.38249       -9.65646
C          4.70330       59.35235       -8.75459
O          5.92166       59.39910       -8.72173
O          3.96337       60.28342       -8.14077
H          2.79480       60.66152      -10.16636
H          1.99214       57.90837      -10.39928
H          4.33779       58.56010      -10.69362
H          4.23686       57.33764       -9.37814
N          1.28912       58.97469       -7.37971
C          0.65108       58.54119       -6.14293
C          1.22690       59.15488       -4.87822
O          0.64196       58.90936       -3.83222
H          1.22857       59.97197       -7.59952
H          0.68522       57.43642       -6.02617
H         -0.41948       58.83254       -6.20645
N          2.36690       59.91102       -4.85926
C          2.94332       60.44825       -3.61848
C          3.19208       61.94191       -3.72988
O          3.03997       62.47679       -4.81244
C          4.29317       59.75962       -3.34313
C          4.17912       58.22763       -3.29364
C          5.50315       57.55172       -3.02941
N          5.57174       56.20162       -3.00340
O          6.51763       58.20975       -2.84521
H          2.88135       60.06491       -5.73841
H          2.26192       60.26536       -2.75931
H          4.70357       60.12735       -2.37721
H          5.00330       60.02909       -4.15430
H          3.80474       57.85843       -4.27287
H          3.45878       57.93308       -2.50087
H          4.72948       55.63037       -3.16561
H          6.46942       55.72632       -2.82866
N          3.62803       62.67857       -2.66282
C          4.03832       64.07714       -2.79000
C          5.49335       64.18569       -2.35369
O          5.79936       63.96801       -1.18935
C          3.12104       65.03783       -1.98732
C          3.54296       66.50366       -2.20753
C          1.65199       64.88330       -2.41087
H          3.71315       62.22433       -1.74060
H          3.96162       64.39477       -3.85417
H          3.19643       64.80047       -0.90355
H          2.88946       67.18584       -1.62394
H          4.58760       66.67277       -1.87692
H          3.46535       66.77864       -3.28286
H          1.29540       63.84916       -2.22484
H          1.00936       65.57463       -1.82404
H          1.52811       65.11770       -3.48929
N          6.44861       64.48458       -3.27324
C          7.88016       64.58235       -2.99505
C          8.18924       65.79699       -2.11702
O          7.29237       66.57234       -1.82275
C          8.61387       64.66786       -4.36526
C         10.11874       64.65421       -4.31527
N         10.78644       63.60088       -3.79115
O         10.74418       65.59968       -4.77109
H          6.13513       64.59962       -4.24128
H          8.19894       63.65141       -2.47778
H          8.27557       65.58634       -4.88825
H          8.30776       63.79696       -4.98551
H         10.27817       62.78954       -3.41175
H         11.81693       63.59813       -3.76525
N          9.45907       66.02824       -1.67506
C          9.86832       67.22091       -0.93584
C          9.61724       68.46628       -1.76941
O          8.95874       69.37998       -1.29434
C         11.37552       67.12795       -0.60265
C         11.88803       68.35257        0.11751
C         11.43156       68.67163        1.40690
C         12.83208       69.18843       -0.50339
C         11.91620       69.80680        2.06514
C         13.30992       70.32474        0.15333
C         12.85503       70.63676        1.44213
O         13.31227       71.72772        2.08898
H         10.18184       65.32912       -1.88897
H          9.29654       67.28382        0.01689
H         11.93705       66.99384       -1.55341
H         11.57319       66.23040        0.02219
H         10.70686       68.03951        1.90443
H         13.19405       68.96610       -1.49985
H         11.56210       70.04120        3.06108
H         14.03364       70.96057       -0.34095
H         13.96293       72.32493        1.69270
N         10.13245       68.56352       -3.02653
C          9.92286       69.70983       -3.90370
C          8.44516       69.89449       -4.19182
O          7.94144       70.99326       -4.00296
C         10.69245       69.53913       -5.23320
C         12.21655       69.51311       -5.01856
C         12.94718       69.42530       -6.32710
O         12.78788       68.46165       -7.05939
O         13.79433       70.40660       -6.69285
H         10.68576       67.77040       -3.37867
H         10.31341       70.63238       -3.41684
H         10.45746       70.40802       -5.88854
H         10.36247       68.61151       -5.75188
H         12.51483       68.64761       -4.39131
H         12.52599       70.44483       -4.49637
N          7.68302       68.85222       -4.63661
C          6.25964       68.98728       -4.95568
C          5.43248       69.43506       -3.75230
O          4.30243       69.86120       -3.94761
C          5.67643       67.66240       -5.50659
C          6.37952       67.19607       -6.79637
C          5.82151       65.89744       -7.30681
O          5.37640       65.82155       -8.43637
O          5.85765       64.79173       -6.54771
H          8.14475       67.94007       -4.75138
H          6.16996       69.77270       -5.73938
H          4.59377       67.79819       -5.72231
H          5.77220       66.88224       -4.72154
H          7.45934       67.03463       -6.61894
H          6.27433       67.98120       -7.57533
N          5.91776       69.36183       -2.48216
C          5.18393       69.83055       -1.32870
H          4.20951       69.30782       -1.25001
H          5.77128       69.63060       -0.40578
H          5.01920       70.92552       -1.40934
H          6.83869       68.95007       -2.31519
Ca         4.39699       62.37818       -7.59667
O          7.73449       63.29056       -8.21124
H          7.57521       62.89876       -9.10602
H          8.49069       63.91593       -8.34118
O          6.92758       61.11430       -6.15761
H          6.82484       60.27858       -5.63828
H          7.50393       60.85683       -6.92011

Ca 1.0



