%chk=holoCaM.loop2.water1.frame374.chk
%nprocshared=20
%mem=10GB
%nosave
#b3lyp/svp scf=(tight,noincore,xqc) Test 
#IOP(5/87=12) Density=Current Pop=(MK,readradii) iop(6/33=2) iop(6/42=6)

holoCaM.loop2.water1.frame374 

   -2  1 
C         -6.01483      110.46280       72.92178
C         -5.85443      109.48770       74.04864
O         -5.00602      108.61371       73.94137
H         -6.80857      111.20761       73.13688
H         -5.05617      110.99799       72.75718
H         -6.28492      109.91193       71.99590
N         -6.65025      109.55920       75.15571
C         -6.54521      108.62194       76.26494
C         -7.81143      107.78926       76.31346
O         -8.87979      108.32434       76.57789
C         -6.29726      109.38952       77.57693
C         -6.05141      108.50253       78.76642
O         -5.82736      109.06458       79.96215
O         -6.02164      107.28784       78.66633
H         -7.37809      110.28937       75.20253
H         -5.67769      107.94810       76.10251
H         -7.16770      110.04832       77.79079
H         -5.40016      110.03431       77.45364
N         -7.76331      106.46949       75.97825
C         -8.95244      105.63691       75.85281
C         -9.57478      105.23899       77.18821
O        -10.66867      104.69255       77.16117
C         -8.61120      104.38170       75.03988
H         -6.85809      106.08152       75.68015
H         -9.70307      106.21052       75.26437
H         -9.51692      103.76549       74.86296
H         -8.19889      104.68175       74.05096
H         -7.84705      103.77074       75.56742
N         -8.94169      105.43625       78.38300
C         -9.51894      105.06613       79.67722
C         -9.65120      106.25655       80.63266
O        -10.14216      106.04886       81.73440
C         -8.74601      103.88684       80.30504
C         -7.26272      104.08303       80.36132
O         -6.72684      105.15159       80.97581
O         -6.53343      103.25745       79.83895
H         -7.99556      105.83604       78.38349
H        -10.55836      104.69114       79.54950
H         -8.94332      102.97430       79.69779
H         -9.13647      103.68673       81.32633
N         -9.34051      107.53683       80.26749
C         -9.68837      108.69122       81.09055
C         -8.87154      108.89552       82.35438
O         -9.20871      109.80307       83.10143
H         -8.97605      107.72599       79.32410
H        -10.76439      108.61091       81.35981
H         -9.56848      109.61452       80.48435
N         -7.76998      108.15276       82.65113
C         -6.94044      108.38594       83.83708
C         -5.88293      109.47081       83.61768
O         -5.02604      109.63144       84.47651
C         -6.31876      107.04978       84.28982
C         -7.39950      106.10813       84.77116
N         -7.62983      104.92691       84.15614
O         -8.07936      106.42379       85.73690
H         -7.47260      107.42240       81.98936
H         -7.56163      108.74118       84.69004
H         -5.62029      107.21028       85.13962
H         -5.74018      106.61549       83.44987
H         -7.07117      104.63392       83.34613
H         -8.37781      104.30223       84.49215
N         -5.93044      110.32079       82.55114
C         -5.01147      111.43318       82.36617
C         -3.61330      111.04762       81.93025
O         -2.82617      111.96245       81.72765
H         -6.70763      110.25649       81.88361
H         -4.97295      112.04161       83.29608
H         -5.41319      112.08355       81.55872
N         -3.22024      109.75451       81.73491
C         -1.88825      109.39776       81.24720
C         -1.98364      108.62182       79.94390
O         -3.07596      108.27230       79.51770
C         -1.12317      108.58961       82.32350
C         -0.85140      109.44586       83.56523
O         -1.86502      107.45294       82.68080
H         -3.88080      108.98610       81.92172
H         -1.29533      110.31047       81.01769
H         -0.13875      108.27745       81.90575
H         -1.25338      106.84969       83.17856
H         -1.80011      109.78810       84.02903
H         -0.28332      108.85461       84.31441
H         -0.24118      110.33198       83.28776
N         -0.85021      108.32912       79.24864
C         -0.82337      107.55738       78.01453
C         -0.04023      106.28673       78.27190
O          1.10144      106.35120       78.70901
C         -0.23711      108.39982       76.84091
C         -1.13752      109.61855       76.48420
C          0.01774      107.54384       75.58127
C         -2.53368      109.27127       75.94062
H          0.05478      108.65946       79.61963
H         -1.83982      107.25776       77.71701
H          0.75230      108.79671       77.15925
H         -0.62019      110.22135       75.70593
H         -1.26051      110.26447       77.37888
H          0.42940      108.17230       74.76279
H          0.76451      106.75050       75.78965
H         -0.90981      107.05429       75.22544
H         -2.46842      108.66656       75.01273
H         -3.14282      108.72946       76.68909
H         -3.07699      110.20563       75.68784
N         -0.60209      105.08486       77.96950
C          0.06311      103.80117       78.12762
C          0.53769      103.31718       76.77263
O          0.36694      104.02976       75.79956
C         -0.91517      102.80946       78.78406
C         -1.21522      103.17376       80.21402
O         -0.32163      103.15247       81.04464
O         -2.47222      103.45070       80.60739
H         -1.53001      105.07574       77.51968
H          0.97954      103.89245       78.75130
H         -0.48653      101.78702       78.79984
H         -1.85084      102.76731       78.18245
N          1.21747      102.14646       76.64237
C          1.81737      101.70404       75.38725
C          0.80925      101.48844       74.25179
O          1.05741      102.03400       73.18686
C          2.69712      100.45670       75.61928
C          3.53658      100.10484       74.40911
C          4.45280      101.03553       73.87833
C          3.42910       98.83877       73.80995
C          5.23267      100.70816       72.76656
C          4.21853       98.51315       72.70118
C          5.11685       99.44760       72.17866
H          1.37513      101.57796       77.48930
H          2.51198      102.51237       75.07067
H          2.06413       99.60064       75.93246
H          3.40260      100.67189       76.45169
H          4.56965      102.01627       74.32050
H          2.74062       98.10159       74.20280
H          5.92982      101.43211       72.36360
H          4.13547       97.53473       72.24688
H          5.72597       99.19481       71.32042
N         -0.33544      100.73643       74.36034
C         -1.25851      100.51457       73.24798
C         -1.85348      101.81880       72.73193
O         -1.86911      102.00993       71.52324
C         -2.27020       99.50634       73.80963
C         -2.27785       99.80452       75.28974
C         -0.80058      100.08059       75.56864
H         -0.75985      100.01514       72.38669
H         -3.25784       99.47896       73.30105
H         -1.81364       98.49359       73.71947
H         -2.85763      100.73808       75.43900
H         -2.72927       99.02100       75.93504
H         -0.75804      100.71036       76.47636
H         -0.22309       99.14158       75.70630
N         -2.26981      102.79895       73.57756
C         -2.72027      104.11836       73.12801
C         -1.63512      104.78547       72.29524
O         -1.92235      105.26284       71.20715
C         -3.04938      105.00351       74.34411
C         -4.25867      104.47128       75.13876
C         -4.44003      105.20449       76.43130
O         -3.72387      106.14502       76.72432
O         -5.27025      104.71644       77.36294
H         -2.18468      102.62803       74.58858
H         -3.64348      104.03130       72.51297
H         -3.27569      106.04346       74.01900
H         -2.15218      105.03019       75.00241
H         -4.08397      103.41246       75.41446
H         -5.18736      104.52457       74.53157
N         -0.34997      104.80994       72.73568
C          0.73846      105.39855       71.99123
H          1.69457      105.23034       72.53490
H          0.81731      104.92304       70.99114
H          0.57683      106.49050       71.88518
H         -0.12687      104.35583       73.62069
Ca        -4.04308      104.06163       79.12347
O         -4.06314      105.09655       82.32002
H         -3.70751      104.88649       83.21961
H         -3.31921      105.55493       81.85631

Ca 1.0



