%chk=holoCaM-CaMKII.loop1.water2.frame364.chk
%nprocshared=20
%mem=10GB
%nosave
#b3lyp/svp scf=(tight,noincore,xqc) Test 
#IOP(5/87=12) Density=Current Pop=(MK,readradii) iop(6/33=2) iop(6/42=6)

holoCaM-CaMKII.loop1.water2.frame364 

   0  1 
C         56.08081       75.06122       40.17525
C         56.16230       75.14255       41.66683
O         55.87374       76.18784       42.22055
H         55.76551       76.03424       39.74185
H         57.08035       74.79582       39.77133
H         55.34701       74.27985       39.88829
N         56.54112       74.04951       42.38157
C         56.68250       74.01593       43.83632
C         57.86427       74.91858       44.23879
O         58.98213       74.42549       44.29275
C         56.91864       72.52031       44.23465
C         57.09246       72.02745       45.66178
O         56.80986       72.74421       46.76882
O         57.46329       70.87417       45.80143
H         56.71917       73.18516       41.84677
H         55.71639       74.36612       44.24690
H         57.83925       72.20655       43.70062
H         56.07539       71.92333       43.82212
N         57.70975       76.26356       44.46139
C         58.84422       77.17801       44.66005
C         59.26825       77.31284       46.11574
O         60.27273       77.96834       46.35552
C         58.59326       78.53864       43.95590
C         58.56792       78.33140       42.43041
C         58.26160       79.60024       41.61867
C         58.08798       79.27761       40.11675
N         59.33772       78.87959       39.45943
H         56.76600       76.67322       44.41000
H         59.74549       76.74617       44.17132
H         59.41928       79.24804       44.18272
H         57.64123       78.98541       44.32053
H         57.79002       77.59025       42.19194
H         59.54972       77.91577       42.12635
H         59.04526       80.37519       41.76578
H         57.29311       80.00818       41.98112
H         57.68752       80.17294       39.59205
H         57.33191       78.46733       40.01103
H         59.11313       78.49457       38.51320
H         59.95679       79.71385       39.34053
H         59.84691       78.13973       39.98874
N         58.63357       76.64910       47.12293
C         59.16967       76.53705       48.47672
C         59.56835       75.08847       48.78970
O         60.06168       74.84883       49.88308
C         58.20368       77.15095       49.50992
C         56.81999       76.57549       49.48633
O         56.63217       75.39534       49.71989
O         55.77110       77.37935       49.23412
H         57.78085       76.12504       46.91438
H         60.11242       77.11851       48.57201
H         58.12619       78.24084       49.30346
H         58.63080       77.03533       50.53015
N         59.47772       74.09044       47.85445
C         60.02711       72.75420       48.04392
C         59.30112       71.87098       49.03942
O         59.77738       70.76621       49.25999
H         59.10967       74.29568       46.91764
H         61.09317       72.85387       48.34326
H         60.00493       72.21748       47.07005
N         58.15622       72.25344       49.67284
C         57.48217       71.40819       50.66173
C         56.94532       70.08549       50.10740
O         56.57758       69.23555       50.90646
C         56.36378       72.19502       51.38526
C         55.27578       72.75767       50.50426
O         54.29199       73.48039       51.06777
O         55.28983       72.61408       49.29372
H         57.77905       73.18823       49.47942
H         58.24069       71.14612       51.43235
H         56.83294       73.05547       51.90728
H         55.89436       71.54224       52.15180
N         56.84963       69.84430       48.77109
C         56.38711       68.58869       48.19589
C         55.05865       68.72442       47.48078
O         54.64064       67.75241       46.86742
H         57.10198       70.59093       48.12057
H         56.26812       67.79761       48.96748
H         57.15762       68.23783       47.47555
N         54.30237       69.85860       47.56914
C         52.98308       69.99562       46.96093
C         52.86328       71.28924       46.16052
O         53.74149       72.13888       46.21484
C         51.88155       69.90193       48.05215
C         51.80742       68.50082       48.68012
O         52.05417       70.87912       49.04824
H         54.63655       70.63426       48.14788
H         52.81188       69.16708       46.23942
H         50.89148       70.07306       47.57939
H         52.84540       70.63016       49.59540
H         52.75128       68.24094       49.20403
H         50.97403       68.46014       49.41345
H         51.61461       67.74179       47.89197
N         51.78062       71.46306       45.34977
C         51.54239       72.61722       44.48648
C         50.19838       73.23704       44.85743
O         49.20083       72.53139       44.91345
C         51.58092       72.15584       42.99447
C         53.03255       71.74841       42.61211
C         51.07254       73.26325       42.04325
C         53.14068       71.03484       41.26214
H         51.08786       70.69958       45.30412
H         52.33384       73.39074       44.60664
H         50.90653       71.27726       42.88731
H         53.44152       71.04515       43.36690
H         53.68262       72.65310       42.60463
H         51.70083       74.17600       42.12491
H         51.06580       72.92275       40.98938
H         50.02204       73.53206       42.27803
H         54.20414       70.78129       41.06480
H         52.55452       70.09178       41.28852
H         52.78678       71.66328       40.42189
N         50.10545       74.58397       45.04932
C         48.86894       75.30522       45.34581
C         48.45206       76.13849       44.14648
O         49.12540       76.11893       43.13137
C         49.07729       76.23803       46.57372
C         49.27920       75.44800       47.87015
O         50.12801       77.14792       46.33169
H         50.95275       75.14667       44.91156
H         48.03365       74.60071       45.55120
H         48.16852       76.84541       46.75733
H         50.94249       76.84719       46.81037
H         49.43923       76.15369       48.71469
H         48.37610       74.83962       48.08561
H         50.15443       74.78015       47.77604
N         47.33072       76.90788       44.21255
C         46.89599       77.83178       43.16589
C         47.94463       78.89837       42.90472
O         48.29521       79.12138       41.75459
C         45.57465       78.53788       43.57743
C         44.39639       77.56086       43.59597
O         45.71770       79.13944       44.84120
H         46.76963       76.85431       45.07421
H         46.70954       77.28110       42.21604
H         45.35161       79.32070       42.81478
H         44.94084       79.74178       44.97291
H         43.46820       78.10571       43.86968
H         44.25674       77.12239       42.58536
H         44.55776       76.74463       44.32909
N         48.46253       79.61719       43.93713
C         49.38181       80.73976       43.77543
C         50.62096       80.30903       43.01615
O         50.99804       80.93806       42.03819
C         49.73813       81.29430       45.17619
C         50.35349       82.69962       45.11782
C         50.65628       83.30466       46.50421
C         49.43861       83.33112       47.45027
N         49.73601       84.07140       48.67570
H         48.17473       79.35533       44.89243
H         48.85457       81.54030       43.21194
H         50.39417       80.58529       45.73025
H         48.78333       81.39039       45.73248
H         49.62970       83.36720       44.60055
H         51.29382       82.68192       44.52620
H         51.00325       84.34733       46.33352
H         51.47872       82.74017       46.99384
H         49.15888       82.29052       47.72633
H         48.57193       83.80868       46.94239
H         48.90836       84.02217       49.31357
H         50.56368       83.65632       49.16155
H         49.92382       85.07449       48.44714
N         51.26266       79.18324       43.40854
C         52.43874       78.61461       42.76308
C         52.16154       78.27830       41.30273
O         52.96002       78.64913       40.45387
C         52.89007       77.38482       43.57337
C         53.32084       77.83043       44.99383
C         53.78054       76.68744       45.82605
O         55.01224       76.71322       46.34192
O         53.06868       75.71599       46.01534
H         50.85375       78.68060       44.20992
H         53.28233       79.33989       42.79019
H         53.74372       76.89671       43.07029
H         52.06301       76.64509       43.62133
H         52.49881       78.32538       45.54114
H         54.15738       78.55840       44.90210
N         51.02039       77.63492       40.93373
C         50.65950       77.33721       39.56111
H         49.72928       77.88723       39.30036
H         51.45042       77.62924       38.83960
H         50.46649       76.24918       39.45550
H         50.34381       77.38474       41.65658
Ca        55.88127       74.71019       46.54431
O         51.84338       73.93443       49.32219
H         52.41863       73.33011       48.79084
H         51.85490       73.56941       50.24121
O         53.02275       76.53694       49.06913
H         53.08551       77.50186       48.85792
H         52.46343       76.49766       49.88474

Ca 1.0



