%chk=holoCaM-CaMKII.loop1.water2.frame449.chk
%nprocshared=20
%mem=10GB
%nosave
#b3lyp/svp scf=(tight,noincore,xqc) Test 
#IOP(5/87=12) Density=Current Pop=(MK,readradii) iop(6/33=2) iop(6/42=6)

holoCaM-CaMKII.loop1.water2.frame449 

   0  1 
C         68.00478       58.67905       25.07468
C         69.21998       57.98761       24.54737
O         70.31176       58.25141       25.03003
H         67.30024       57.92484       25.48387
H         68.28296       59.38743       25.88424
H         67.51411       59.24055       24.25368
N         69.10346       57.05386       23.56418
C         70.25904       56.33014       23.06163
C         71.15666       57.27878       22.27925
O         70.68376       57.85380       21.30796
C         69.81566       55.14381       22.17459
C         70.88629       54.09515       22.06430
O         70.65568       53.06111       21.46463
O         72.02892       54.21903       22.76510
H         68.16170       56.81955       23.21202
H         70.77192       55.90373       23.95292
H         69.46643       55.49166       21.17786
H         68.96564       54.62449       22.66674
N         72.45260       57.49950       22.64400
C         73.33234       58.44044       21.95542
C         74.47917       57.75180       21.22519
O         75.21204       58.46003       20.54847
C         73.88698       59.48039       22.95408
C         72.79084       60.38914       23.53072
C         73.39459       61.45031       24.46595
C         72.37415       62.50440       24.93123
N         71.29777       61.93523       25.74283
H         72.83361       56.98846       23.44713
H         72.77295       58.98480       21.16297
H         74.61025       60.13618       22.42147
H         74.42892       58.95978       23.77524
H         72.05150       59.77873       24.08203
H         72.27947       60.90157       22.68703
H         74.19020       61.99641       23.91323
H         73.86155       60.95789       25.34717
H         71.94243       63.02210       24.04585
H         72.91545       63.26483       25.53737
H         71.69488       61.45152       26.58043
H         70.67571       62.71163       26.06568
H         70.72118       61.26983       25.18114
N         74.68738       56.40043       21.26497
C         75.72470       55.73726       20.46912
C         75.12812       54.77982       19.43174
O         75.88866       54.21442       18.65798
C         76.78873       55.08880       21.38189
C         76.31146       53.97160       22.26249
O         75.15768       53.58661       22.22286
O         77.17977       53.37866       23.10354
H         74.08051       55.81420       21.85277
H         76.28274       56.49140       19.87308
H         77.21142       55.88469       22.03374
H         77.61384       54.69484       20.75019
N         73.77832       54.61968       19.29339
C         73.15352       53.90819       18.19001
C         73.38090       52.41579       18.16843
O         73.84226       51.90634       17.15724
H         73.13431       55.10891       19.93013
H         73.48621       54.36243       17.23072
H         72.05356       54.05562       18.25954
N         72.99539       51.64245       19.22006
C         72.97039       50.17977       19.18575
C         71.55518       49.63327       19.44274
O         71.39801       48.42083       19.48511
C         74.01451       49.60230       20.16134
C         73.86059       50.07915       21.56939
O         72.82129       49.89020       22.17415
O         74.88607       50.70426       22.17766
H         72.66190       52.11421       20.07392
H         73.26477       49.80165       18.18210
H         75.02788       49.89360       19.80832
H         73.96051       48.49229       20.14562
N         70.47291       50.45777       19.57759
C         69.10485       49.99963       19.78000
C         68.90374       49.30212       21.10853
O         68.35686       48.21315       21.12162
H         70.59340       51.47454       19.48914
H         68.79115       49.34717       18.93546
H         68.43917       50.89054       19.77913
N         69.26899       49.92434       22.26449
C         69.10195       49.41816       23.63618
C         69.49391       50.53392       24.60484
O         70.56840       51.09903       24.45062
C         69.94559       48.15301       23.98900
C         69.47363       46.82703       23.39059
O         71.29552       48.33448       23.66588
H         69.67098       50.86554       22.15063
H         68.03301       49.17209       23.81899
H         69.82816       47.99129       25.08901
H         71.74062       48.70393       24.46921
H         70.05120       45.99603       23.84870
H         68.39746       46.66273       23.61540
H         69.66517       46.75961       22.30636
N         68.67826       50.88901       25.64126
C         68.96361       52.01521       26.52859
C         69.41216       51.50345       27.88979
O         68.63380       50.87154       28.59040
C         67.70941       52.93736       26.63277
C         67.32253       53.47858       25.23243
C         67.94352       54.09762       27.62046
C         66.00510       54.25711       25.21708
H         67.82190       50.34009       25.81213
H         69.79369       52.62393       26.11024
H         66.86759       52.32126       27.02166
H         67.19311       52.62764       24.53036
H         68.13721       54.12719       24.84522
H         67.02777       54.70486       27.75768
H         68.19573       53.71271       28.62612
H         68.76194       54.75413       27.26279
H         65.17766       53.61366       25.58551
H         66.06107       55.17587       25.83374
H         65.77509       54.56903       24.17694
N         70.68475       51.75430       28.31836
C         71.20105       51.35992       29.62788
C         70.57172       52.20613       30.73086
O         69.83453       53.13345       30.43757
C         72.74919       51.52855       29.67736
C         73.46290       50.64480       28.64774
O         73.08877       52.87030       29.45063
H         71.32091       52.23792       27.67361
H         70.96758       50.28574       29.79810
H         73.10646       51.22109       30.68658
H         74.02341       52.99241       29.76210
H         73.17087       50.91903       27.61429
H         74.56251       50.77873       28.73868
H         73.22327       49.57593       28.82343
N         70.85119       51.95244       32.03910
C         70.38184       52.79662       33.13929
C         70.98785       54.19159       33.02881
O         70.25729       55.17006       33.08791
C         70.73378       52.17283       34.51460
C         69.99485       50.84562       34.73349
O         72.11944       51.97114       34.62744
H         71.44311       51.13707       32.25632
H         69.27144       52.88090       33.10653
H         70.39108       52.88712       35.30074
H         72.32021       51.88167       35.59556
H         70.29189       50.08697       33.98029
H         70.22934       50.44656       35.74274
H         68.89703       51.00383       34.66911
N         72.32834       54.33703       32.82866
C         73.03332       55.61366       32.70187
C         72.38537       56.51732       31.66911
O         72.06320       57.65008       32.00099
C         74.51139       55.31579       32.35365
C         75.37540       56.54970       32.05552
C         76.84191       56.11756       31.87401
C         77.78020       57.26074       31.45791
N         77.53269       57.70434       30.08392
H         72.88197       53.47217       32.72793
H         73.01006       56.14884       33.67773
H         74.55364       54.65994       31.45659
H         74.94717       54.75671       33.21134
H         75.31228       57.27999       32.89098
H         74.99050       57.02627       31.13031
H         76.92150       55.30415       31.11951
H         77.19468       55.71573       32.84947
H         78.82466       56.88087       31.51504
H         77.68752       58.11427       32.16487
H         76.57865       58.11566       29.98505
H         78.23612       58.43530       29.83134
H         77.64206       56.89911       29.42428
N         72.15206       56.08080       30.40427
C         71.53897       56.91145       29.37118
C         70.18273       57.41295       29.83736
O         69.98746       58.62009       29.87624
C         71.43420       56.13611       28.03876
C         72.83283       55.79486       27.48888
C         72.76838       55.06051       26.18490
O         73.34876       55.50120       25.20985
O         72.11877       53.88892       26.09044
H         72.40650       55.11048       30.18524
H         72.18424       57.79993       29.18384
H         70.90668       56.76800       27.29092
H         70.84929       55.20371       28.19271
H         73.38629       55.15441       28.20094
H         73.41228       56.73447       27.35085
N         69.22218       56.54647       30.26117
C         67.94402       56.96983       30.79937
H         67.12235       56.52330       30.20338
H         67.85771       56.61967       31.85042
H         67.82473       58.07407       30.79643
H         69.41545       55.53809       30.23941
Ca        73.08718       52.40046       23.54925
O         75.38917       52.67471       25.77003
H         75.55751       53.60350       25.47236
H         76.28992       52.27094       25.84860
O         73.97252       49.85318       25.21912
H         74.04726       48.87701       25.07428
H         74.69971       50.06094       25.85650

Ca 1.0



