%chk=holoCaM.loop3.water2.frame210.chk
%nprocshared=20
%mem=10GB
%nosave
#b3lyp/svp scf=(tight,noincore,xqc) Test 
#IOP(5/87=12) Density=Current Pop=(MK,readradii) iop(6/33=2) iop(6/42=6)

holoCaM.loop3.water2.frame210 

   0  1 
C          7.94539       56.43340       82.41132
C          9.02097       55.44326       82.72074
O          9.05254       54.38303       82.11041
H          7.33458       56.60349       83.32176
H          8.40362       57.39108       82.08731
H          7.28895       56.05403       81.59963
N          9.96539       55.73576       83.65621
C         11.03433       54.80649       83.97836
C         10.44154       53.60932       84.69607
O          9.88509       53.76542       85.77431
C         12.12963       55.52127       84.78722
C         13.40999       54.74965       84.88532
O         13.52185       53.61744       84.44106
O         14.47667       55.36151       85.41508
H          9.93903       56.66025       84.11493
H         11.50710       54.49773       83.01879
H         11.76693       55.80441       85.79890
H         12.39182       56.45644       84.24804
N         10.45957       52.38993       84.09799
C          9.77820       51.21503       84.62809
C         10.34551       50.79225       85.97027
O          9.58571       50.60161       86.90920
C          9.87384       50.06951       83.59790
C          9.00619       48.86673       83.98847
C          8.99226       47.81547       82.87409
C          8.07699       46.64272       83.24713
N          8.02513       45.65563       82.17008
H         10.92692       52.31200       83.18228
H          8.69682       51.45564       84.74059
H         10.93145       49.75489       83.45498
H          9.49312       50.45862       82.62674
H          7.96331       49.21754       84.15304
H          9.38550       48.41453       84.93047
H         10.02507       47.44429       82.69496
H          8.61374       48.28282       81.93775
H          7.04832       47.02212       83.44055
H          8.45314       46.15876       84.17567
H          7.39678       44.87070       82.45686
H          7.64205       46.09371       81.30069
H          8.98128       45.27584       81.98306
N         11.68791       50.64996       86.12259
C         12.33524       50.19036       87.35235
C         13.00025       51.31661       88.13108
O         13.51686       51.04226       89.20616
C         13.32437       49.04686       87.02226
C         14.41696       49.42692       86.04734
O         15.16837       48.56524       85.62203
O         14.52658       50.68876       85.58634
H         12.26604       50.90921       85.31445
H         11.56910       49.77746       88.04583
H         12.73568       48.22419       86.56073
H         13.78563       48.65356       87.95421
N         12.98005       52.61046       87.70005
C         13.48928       53.71326       88.49695
C         14.96838       53.59955       88.77838
O         15.33729       53.53346       89.94235
H         12.53380       52.84543       86.80400
H         12.92419       53.74931       89.45517
H         13.30422       54.67105       87.96487
N         15.87551       53.60978       87.76014
C         17.32328       53.56050       87.97161
C         18.02177       54.84513       87.51348
O         19.23256       54.93263       87.66381
C         17.91291       52.32243       87.25814
C         18.02480       52.49879       85.76015
N         19.21933       52.36926       85.13627
O         17.03634       52.77565       85.10574
H         15.51692       53.66438       86.79934
H         17.53038       53.44018       89.05652
H         17.28465       51.43438       87.49258
H         18.92816       52.12634       87.66338
H         20.07164       52.13488       85.66520
H         19.29305       52.49685       84.11604
N         17.33025       55.86694       86.92595
C         17.92355       57.09714       86.42778
C         17.76860       57.24895       84.91982
O         18.09171       58.31378       84.41493
H         16.31624       55.79121       86.81241
H         19.00663       57.16398       86.66768
H         17.41101       57.94286       86.93376
N         17.36259       56.21043       84.12860
C         17.33661       56.25400       82.66792
C         16.08609       55.58756       82.11281
O         15.75814       54.48118       82.51669
C         18.57701       55.51117       82.13244
C         19.83323       56.32735       82.33547
C         20.82937       55.92081       83.23641
C         20.01931       57.51146       81.59669
C         21.98864       56.68983       83.39868
C         21.18113       58.27082       81.75213
C         22.17093       57.86257       82.65561
O         23.29875       58.58493       82.81431
H         17.19049       55.29556       84.56511
H         17.38019       57.29636       82.28315
H         18.48770       55.33100       81.03782
H         18.64295       54.51819       82.62900
H         20.70650       55.01622       83.81782
H         19.26931       57.84060       80.88748
H         22.74915       56.37211       84.10023
H         21.31139       59.17366       81.16756
H         23.46650       59.39482       82.31071
N         15.42620       56.16637       81.06767
C         14.33063       55.53640       80.33490
C         14.90253       54.99800       79.03745
O         15.55620       55.74745       78.32445
C         13.20255       56.56873       80.03052
C         12.63575       57.16694       81.33743
C         12.07831       55.90569       79.19852
C         11.66110       58.32469       81.11041
H         15.80007       57.04886       80.68565
H         13.89138       54.69355       80.91550
H         13.64518       57.39632       79.43219
H         13.46744       57.56802       81.95428
H         12.12782       56.37176       81.90996
H         12.47222       55.50504       78.24228
H         11.61321       55.06928       79.76449
H         11.29133       56.63168       78.91805
H         11.32395       58.71822       82.09209
H         12.16715       59.14303       80.55509
H         10.75835       58.00565       80.55327
N         14.65093       53.71540       78.64553
C         15.17288       53.15360       77.40450
C         14.08470       53.02945       76.35218
O         12.92136       53.28217       76.63214
C         15.84096       51.79669       77.68948
O         14.89935       50.89380       78.20378
H         14.03176       53.13161       79.22627
H         15.93845       53.83379       76.97322
H         16.65699       51.94428       78.42914
H         16.27683       51.38590       76.75237
H         15.36791       50.02513       78.30597
N         14.42907       52.67433       75.08156
C         13.47831       52.53404       73.98315
C         12.47043       51.44876       74.28315
O         11.28694       51.65957       74.06330
C         14.21915       52.20481       72.68408
H         15.42728       52.50404       74.88410
H         12.95018       53.49995       73.81541
H         14.93754       53.01952       72.44826
H         14.77625       51.24842       72.77371
H         13.49643       52.12791       71.84342
N         12.87553       50.26891       74.82896
C         11.95761       49.21104       75.23189
C         10.94701       49.72326       76.24647
O          9.75431       49.55823       76.03269
C         12.74617       48.04268       75.84079
H         13.88473       50.13640       75.00255
H         11.42137       48.82399       74.33681
H         13.31432       48.36996       76.73869
H         12.05620       47.22325       76.13445
H         13.46760       47.64278       75.09649
N         11.36386       50.35832       77.37926
C         10.45636       50.81502       78.43555
C          9.48084       51.89951       77.98722
O          8.58814       52.21608       78.76194
C         11.26486       51.34248       79.64088
C         12.10469       50.22839       80.28921
C         12.97932       50.71130       81.40739
O         13.03832       51.89265       81.71342
O         13.72775       49.81258       82.07082
H         12.37810       50.48931       77.50059
H          9.85263       49.94129       78.76876
H         10.57783       51.74306       80.41946
H         11.91492       52.17333       79.29167
H         12.77278       49.74902       79.54680
H         11.41556       49.45423       80.68921
N          9.57915       52.51864       76.77777
C          8.64727       53.52571       76.31181
H          7.83592       53.72699       77.04208
H          9.19344       54.47236       76.11946
H          8.18288       53.18061       75.36379
H         10.35159       52.28515       76.14988
Ca        15.53479       51.18266       83.63425
O         18.03593       49.67375       83.69064
H         17.78068       49.05044       82.96521
H         17.39400       49.48076       84.41912
O         16.89720       51.75969       81.11419
H         17.33618       52.62859       80.93500
H         17.61528       51.08791       80.99907

Ca 1.0



