%chk=holoCaM.loop2.water2.frame277.chk
%nprocshared=20
%mem=10GB
%nosave
#b3lyp/svp scf=(tight,noincore,xqc) Test 
#IOP(5/87=12) Density=Current Pop=(MK,readradii) iop(6/33=2) iop(6/42=6)

holoCaM.loop2.water2.frame277 

   -2  1 
C         58.55862        1.12723       46.04745
C         58.99038        0.18133       44.96191
O         58.31823       -0.80666       44.71170
H         57.61026        0.79647       46.51983
H         59.34885        1.19104       46.82500
H         58.40390        2.14005       45.61505
N         60.11494        0.45758       44.25349
C         60.60531       -0.33714       43.13156
C         61.06217       -1.73121       43.54678
O         61.86840       -1.84689       44.45901
C         61.77543        0.41549       42.47479
C         62.31198       -0.32173       41.29213
O         63.60957       -0.67871       41.26012
O         61.57323       -0.61141       40.36582
H         60.62410        1.32137       44.50170
H         59.80010       -0.41550       42.36772
H         62.59280        0.57000       43.21227
H         61.41832        1.41052       42.13274
N         60.63535       -2.82886       42.84996
C         61.06480       -4.19697       43.13036
C         61.79407       -4.87175       41.95784
O         62.27514       -5.97740       42.16575
C         59.83250       -5.03182       43.50316
H         59.97777       -2.68287       42.07729
H         61.76317       -4.20188       43.99443
H         59.11904       -5.06955       42.65006
H         60.12204       -6.07170       43.76620
H         59.31304       -4.58217       44.37569
N         61.87507       -4.32615       40.70255
C         62.46407       -5.04456       39.55559
C         63.34314       -4.18343       38.63796
O         63.90543       -4.73136       37.69975
C         61.33673       -5.72316       38.74904
C         60.33444       -4.76482       38.18219
O         60.49928       -3.43941       38.31183
O         59.31934       -5.19361       37.65749
H         61.38134       -3.44302       40.53247
H         63.11190       -5.86763       39.92756
H         60.79419       -6.40163       39.44383
H         61.75315       -6.33946       37.92422
N         63.51118       -2.84641       38.83157
C         64.35779       -1.99716       38.00706
C         63.89599       -1.89746       36.56866
O         64.67525       -2.21692       35.68224
H         63.04761       -2.40067       39.62270
H         65.40352       -2.37309       38.05032
H         64.35256       -0.96847       38.42926
N         62.65072       -1.43109       36.26135
C         62.17159       -1.24702       34.88872
C         61.74525        0.20468       34.61180
O         61.15831        0.45456       33.56782
C         61.05479       -2.27235       34.57612
C         59.76238       -2.08980       35.31885
N         58.73686       -2.94469       35.10970
O         59.62436       -1.16853       36.10087
H         62.01331       -1.20096       37.03798
H         62.97537       -1.48706       34.15919
H         61.44570       -3.29103       34.79282
H         60.81906       -2.22255       33.49119
H         58.83136       -3.73343       34.45410
H         57.84427       -2.81480       35.60405
N         62.06065        1.22252       35.47053
C         61.73563        2.62766       35.23891
C         60.28035        3.01663       35.47651
O         59.97784        4.19068       35.31851
H         62.65121        1.01783       36.28698
H         62.04848        2.91311       34.20989
H         62.33289        3.24115       35.94701
N         59.32565        2.11236       35.83597
C         57.90900        2.43260       36.00744
C         57.32843        1.82355       37.27643
O         57.45522        0.62487       37.47091
C         57.10202        1.86996       34.81082
C         57.40206        2.63135       33.52128
O         57.37818        0.50505       34.60874
H         59.59531        1.13217       35.91773
H         57.73466        3.53165       36.02369
H         56.01142        2.02271       35.00107
H         56.72236       -0.01532       35.14110
H         56.77867        2.22463       32.69727
H         57.14940        3.70641       33.64963
H         58.47166        2.53864       33.24228
N         56.55123        2.57144       38.11409
C         55.69039        1.97027       39.13638
C         54.67750        1.04842       38.45146
O         53.99361        1.46748       37.52798
C         54.99052        3.06951       40.00738
C         56.05071        3.70379       40.95297
C         53.82417        2.48775       40.83301
C         55.52492        4.80655       41.87511
H         56.47652        3.58617       37.94464
H         56.29826        1.35808       39.83579
H         54.55017        3.84317       39.34019
H         56.87454        4.13255       40.34473
H         56.47819        2.91021       41.60501
H         53.30666        3.28234       41.40407
H         53.04514        2.05944       40.17030
H         54.18284        1.70619       41.53087
H         56.36426        5.19582       42.48999
H         55.09473        5.63870       41.28220
H         54.76566        4.41881       42.58525
N         54.50585       -0.21836       38.92364
C         53.55841       -1.20514       38.40792
C         52.36664       -1.25940       39.33713
O         52.31652       -0.47012       40.26530
C         54.21826       -2.60179       38.40574
C         55.53523       -2.63742       37.71356
O         56.48217       -1.78553       38.12877
O         55.78914       -3.49821       36.88715
H         55.03790       -0.48783       39.75895
H         53.21598       -0.93417       37.38511
H         53.54484       -3.37531       37.97947
H         54.43361       -2.87872       39.46232
N         51.35635       -2.15296       39.16481
C         50.21822       -2.19980       40.07144
C         50.61986       -2.58794       41.50447
O         50.29826       -1.80997       42.38951
C         49.07535       -3.05794       39.48947
C         47.83920       -3.02314       40.35914
C         47.23330       -1.79805       40.70224
C         47.27369       -4.21930       40.83137
C         46.09724       -1.77328       41.51264
C         46.12760       -4.18931       41.63191
C         45.54292       -2.96756       41.97576
H         51.37915       -2.78807       38.35156
H         49.80620       -1.16835       40.10977
H         49.39719       -4.10026       39.31633
H         48.80674       -2.63999       38.49493
H         47.63630       -0.85710       40.35287
H         47.71396       -5.17506       40.57550
H         45.64661       -0.82582       41.77890
H         45.69265       -5.11414       41.98655
H         44.65903       -2.94511       42.59903
N         51.31862       -3.72535       41.84066
C         51.72223       -4.05894       43.21009
C         52.42699       -2.91982       43.92435
O         52.09751       -2.59947       45.05768
C         52.72792       -5.21027       43.01856
C         52.18459       -5.90041       41.79673
C         51.81517       -4.71620       40.90547
H         50.83098       -4.40432       43.77904
H         53.72604       -4.81756       42.71569
H         52.87562       -5.84943       43.91553
H         52.86852       -6.63931       41.32615
H         51.24818       -6.41895       42.10278
H         52.70128       -4.29690       40.38311
H         51.07067       -5.07551       40.17702
N         53.43372       -2.27845       43.28212
C         54.27242       -1.22561       43.84243
C         53.43183       -0.01497       44.21714
O         53.59864        0.51112       45.30765
C         55.36879       -0.86298       42.81370
C         56.25099       -2.09776       42.48057
C         57.23428       -1.88435       41.37328
O         57.37004       -0.79924       40.83555
O         57.93609       -2.94069       40.92567
H         53.59994       -2.56706       42.30758
H         54.80025       -1.59612       44.74943
H         56.01306       -0.04392       43.20176
H         54.86573       -0.50456       41.89906
H         55.63503       -2.94689       42.13477
H         56.79117       -2.43581       43.38882
N         52.46582        0.43929       43.37282
C         51.58721        1.55610       43.64969
H         50.53836        1.19251       43.69365
H         51.83298        2.06166       44.60500
H         51.66050        2.29521       42.82633
H         52.31087       -0.06142       42.49762
Ca        58.60732       -2.32094       38.25676
O         60.99700        0.94927       38.23808
H         60.38561        1.63602       38.59872
H         61.89900        1.24869       38.51718
O         58.88366        1.74119       40.71268
H         59.42657        2.52094       40.98832
H         58.41155        1.46705       41.53773

Ca 1.0



