%chk=holoCaM.loop1.water2.frame6.chk
%nprocshared=20
%mem=10GB
%nosave
#b3lyp/svp scf=(tight,noincore,xqc) Test 
#IOP(5/87=12) Density=Current Pop=(MK,readradii) iop(6/33=2) iop(6/42=6)

holoCaM.loop1.water2.frame6 

   0  1 
C         81.17211       47.20833       25.08881
C         82.23679       46.89249       24.08191
O         82.62384       47.76831       23.32215
H         80.29000       46.55949       24.90270
H         81.55498       47.01669       26.11309
H         80.85603       48.27026       25.01342
N         82.76020       45.63683       24.02872
C         83.77464       45.22583       23.06279
C         83.20924       45.32579       21.65390
O         82.37312       44.52268       21.26575
C         84.24960       43.80367       23.42562
C         85.15002       43.08307       22.46054
O         86.34418       43.56492       22.06379
O         84.81565       41.97226       22.08393
H         82.41786       44.95009       24.71944
H         84.64682       45.91056       23.16452
H         83.35055       43.16176       23.55957
H         84.76830       43.86275       24.40759
N         83.58374       46.37017       20.86744
C         83.07474       46.62275       19.52736
C         83.56858       45.59803       18.52436
O         82.74451       45.05472       17.80211
C         83.47200       48.04026       19.03210
C         82.93546       49.20143       19.90591
C         81.41047       49.20449       20.12151
C         80.60982       49.27350       18.81115
N         79.17322       49.23364       19.07890
H         84.20894       47.06552       21.28704
H         81.96516       46.59210       19.54094
H         83.08845       48.17691       17.99877
H         84.57490       48.13306       18.96266
H         83.23597       50.16182       19.43170
H         83.41177       49.16773       20.90744
H         81.14857       50.08371       20.75015
H         81.11749       48.29864       20.69165
H         80.86257       48.41059       18.15991
H         80.86416       50.21088       18.26845
H         78.89121       50.04709       19.67189
H         78.65511       49.27452       18.17164
H         78.92759       48.33972       19.56443
N         84.89952       45.31809       18.38751
C         85.43486       44.52732       17.27810
C         85.79775       43.08408       17.62634
O         86.07869       42.34239       16.69493
C         86.56429       45.31092       16.56925
C         87.79304       45.57805       17.40341
O         88.70576       46.23410       16.92754
O         87.90777       45.11038       18.66030
H         85.55584       45.74784       19.04958
H         84.63224       44.40916       16.51745
H         86.14802       46.29284       16.25156
H         86.87799       44.76281       15.65529
N         85.73613       42.58060       18.89476
C         85.77485       41.14248       19.17627
C         86.96165       40.64544       19.98288
O         86.94017       39.48534       20.36960
H         85.54417       43.21796       19.67824
H         85.75420       40.54082       18.24323
H         84.84145       40.89640       19.72484
N         88.05819       41.41419       20.21783
C         89.26157       40.91527       20.90244
C         89.09784       40.67526       22.41110
O         90.06064       40.25116       23.03588
C         90.45245       41.86469       20.63771
C         90.12713       43.30404       20.91930
O         90.25615       44.13803       20.03755
O         89.62522       43.67113       22.10892
H         88.06657       42.35786       19.80671
H         89.55086       39.93726       20.45713
H         90.74070       41.78083       19.56656
H         91.33162       41.54493       21.23814
N         87.93195       40.90991       23.06688
C         87.75189       40.73170       24.49927
C         88.59803       41.69396       25.29915
O         89.22653       41.27504       26.25924
H         87.11965       41.23198       22.53880
H         87.94018       39.67795       24.80042
H         86.69178       40.96679       24.74073
N         88.57375       43.02024       24.99193
C         89.19947       44.09535       25.77268
C         88.62430       45.45367       25.34286
O         87.97124       45.54272       24.30939
C         90.76461       44.14572       25.69771
C         91.52753       42.93799       26.26611
O         91.19906       44.41347       24.39085
H         87.96765       43.26853       24.19780
H         88.88270       43.95351       26.82979
H         91.09002       44.99995       26.33005
H         91.21367       43.55512       23.89496
H         91.22625       42.74208       27.31589
H         91.37937       42.03273       25.64399
H         92.61832       43.15058       26.24807
N         88.78173       46.55533       26.12914
C         88.18456       47.85279       25.81579
C         89.29336       48.89438       25.69426
O         90.08358       49.04992       26.61514
C         87.09308       48.21762       26.87289
C         85.98681       47.11837       26.88455
C         86.46890       49.59127       26.55392
C         84.84486       47.36685       27.87515
H         89.30365       46.46343       27.01527
H         87.64586       47.81305       24.84453
H         87.56534       48.27400       27.87807
H         86.44546       46.14354       27.15441
H         85.54160       47.01868       25.86885
H         87.24299       50.38114       26.51773
H         85.93325       49.55620       25.58365
H         85.75107       49.90107       27.33920
H         85.23907       47.46579       28.90763
H         84.26460       48.27380       27.60807
H         84.13692       46.51104       27.84250
N         89.37469       49.66887       24.57420
C         90.35468       50.72124       24.33996
C         89.76181       52.06379       24.72768
O         88.63470       52.12242       25.19139
C         90.78231       50.74995       22.83685
C         91.50848       49.47486       22.39728
O         89.67549       51.03577       22.01096
H         88.62617       49.58882       23.88806
H         91.25519       50.56081       24.97222
H         91.52106       51.55690       22.66555
H         89.37546       50.20422       21.56203
H         90.83322       48.61083       22.50705
H         91.80402       49.56480       21.32837
H         92.42304       49.31887       23.00517
N         90.48939       53.19732       24.55330
C         90.01092       54.54346       24.85584
C         88.74316       54.87159       24.07394
O         87.74919       55.25047       24.67645
C         91.12122       55.58192       24.53458
C         92.33556       55.40891       25.45772
O         91.53084       55.45674       23.19494
H         91.43843       53.09360       24.17043
H         89.77505       54.61875       25.94136
H         90.69764       56.59817       24.70467
H         92.04742       56.27155       22.96533
H         93.10004       56.17630       25.21585
H         92.02919       55.53585       26.51665
H         92.80649       54.41106       25.33989
N         88.72029       54.74532       22.72115
C         87.57607       55.05984       21.86705
C         86.36131       54.23058       22.24685
O         85.28674       54.78838       22.42084
C         88.01363       54.83078       20.40337
C         86.95356       55.12099       19.33343
C         87.62279       55.04963       17.94623
C         86.65499       55.20092       16.76512
N         85.75934       54.04939       16.64366
H         89.57548       54.39064       22.26772
H         87.31676       56.13753       21.96683
H         88.36087       53.78096       20.27329
H         88.87956       55.50784       20.22627
H         86.52537       56.13811       19.47229
H         86.14228       54.37105       19.43300
H         88.16826       54.08793       17.82832
H         88.36899       55.87380       17.88782
H         87.26548       55.26628       15.83631
H         86.06958       56.14208       16.85623
H         85.11325       53.99155       17.46136
H         85.18807       54.15300       15.77454
H         86.31879       53.16790       16.56935
N         86.47402       52.88826       22.41697
C         85.35402       52.01354       22.76088
C         84.70309       52.41091       24.08243
O         83.49029       52.29659       24.19194
C         85.81705       50.54450       22.80372
C         86.37148       50.08276       21.43785
C         86.84110       48.66303       21.48998
O         87.68805       48.30442       22.28378
O         86.32164       47.75370       20.67055
H         87.41302       52.48132       22.30681
H         84.57986       52.08363       21.96450
H         84.96033       49.89029       23.08348
H         86.59911       50.44713       23.58133
H         87.22053       50.70649       21.11502
H         85.58166       50.18265       20.66556
N         85.43833       52.92473       25.10917
C         84.87325       53.37299       26.36756
H         83.77449       53.22503       26.41948
H         85.34526       52.81891       27.20577
H         85.08425       54.45652       26.49684
H         86.44989       53.03473       24.99184
Ca        86.64497       45.65239       21.35123
O         89.66595       47.74320       19.89241
H         90.42181       48.24832       19.50083
H         88.89860       47.94276       19.30035
O         90.83650       46.17439       22.02112
H         90.60571       46.39960       22.95697
H         91.81506       46.30888       21.95949

Ca 1.0



