%chk=holoCaM.loop3.water2.frame204.chk
%nprocshared=20
%mem=10GB
%nosave
#b3lyp/svp scf=(tight,noincore,xqc) Test 
#IOP(5/87=12) Density=Current Pop=(MK,readradii) iop(6/33=2) iop(6/42=6)

holoCaM.loop3.water2.frame204 

   0  1 
C         14.60580       40.59259       75.24190
C         15.89199       39.82286       75.16362
O         15.86625       38.66378       74.77523
H         13.90744       40.08126       75.93617
H         14.77335       41.62737       75.60973
H         14.14533       40.64962       74.23354
N         17.06916       40.41377       75.50677
C         18.35269       39.72700       75.43361
C         18.36986       38.57221       76.42894
O         18.15411       38.81531       77.60862
C         19.48822       40.73885       75.71486
C         20.83882       40.19819       75.34591
O         21.32464       39.10663       75.95261
O         21.50250       40.74825       74.48177
H         17.05004       41.40122       75.80759
H         18.49083       39.36137       74.39083
H         19.47396       41.05885       76.77972
H         19.31966       41.64374       75.09045
N         18.61077       37.28924       76.02627
C         18.60200       36.15250       76.94904
C         19.57572       36.33986       78.10055
O         19.15765       36.21022       79.24284
C         18.95827       34.81712       76.24948
C         17.85867       34.28351       75.31401
C         18.18771       32.89146       74.72494
C         18.34855       31.78823       75.79517
N         18.56567       30.47706       75.18385
H         18.80769       37.11758       75.02918
H         17.58377       36.03955       77.38629
H         19.07913       34.07151       77.06052
H         19.92611       34.90382       75.70727
H         17.70499       34.99711       74.47697
H         16.90452       34.20411       75.88000
H         19.11309       32.95229       74.11234
H         17.34766       32.60380       74.05521
H         17.43298       31.74588       76.42617
H         19.21733       32.00657       76.45044
H         19.43269       30.49038       74.59927
H         18.68263       29.76393       75.94077
H         17.74301       30.21067       74.59622
N         20.89052       36.60870       77.87487
C         21.90026       36.62237       78.93266
C         22.41242       38.02140       79.27172
O         23.36883       38.12070       80.02831
C         23.02933       35.62510       78.56983
C         23.84385       35.96085       77.34595
O         24.82368       35.12379       76.95738
O         23.63937       36.97460       76.70274
H         21.18935       36.76827       76.90296
H         21.46814       36.24058       79.88380
H         22.56736       34.62606       78.40897
H         23.72853       35.53966       79.42853
N         21.76983       39.14928       78.84559
C         22.15617       40.49630       79.25114
C         23.47785       40.99687       78.68964
O         23.86443       42.09913       79.05143
H         20.90581       39.05721       78.29722
H         22.19547       40.53037       80.36229
H         21.37151       41.21043       78.92102
N         24.23246       40.26742       77.82101
C         25.54541       40.70437       77.34157
C         25.50404       41.99050       76.51427
O         26.50448       42.69325       76.49417
C         26.24653       39.57509       76.54562
C         25.66072       39.37739       75.13581
N         26.20831       38.20414       74.47291
O         24.26080       39.35786       75.17998
H         23.89193       39.34094       77.54225
H         26.16438       40.88341       78.24967
H         26.18439       38.63245       77.13356
H         27.32256       39.82734       76.42400
H         27.24699       38.19682       74.60186
H         26.06035       38.35540       73.45176
N         24.42065       42.31443       75.74321
C         24.34751       43.50722       74.90644
C         24.26530       43.20827       73.41343
O         24.14702       44.16063       72.65511
H         23.59976       41.69477       75.74477
H         25.23489       44.15938       75.05661
H         23.45242       44.08878       75.21435
N         24.37422       41.94336       72.90659
C         24.41164       41.63037       71.47808
C         23.35913       40.59506       71.11779
O         23.35172       39.52559       71.71098
C         25.78880       41.05461       71.10639
C         26.90963       42.03419       71.33664
C         27.58210       42.06829       72.56894
C         27.31029       42.90401       70.30909
C         28.64351       42.95634       72.76771
C         28.37188       43.79081       70.50965
C         29.04488       43.81714       71.73990
O         30.07799       44.65931       71.94330
H         24.50337       41.15995       73.55268
H         24.25746       42.54406       70.86175
H         25.78263       40.77240       70.02956
H         25.99189       40.11774       71.66979
H         27.28913       41.40316       73.37196
H         26.80476       42.89144       69.35115
H         29.15892       42.97026       73.71964
H         28.67343       44.45217       69.70691
H         30.39463       45.26091       71.25424
N         22.46959       40.82903       70.11121
C         21.46162       39.86714       69.67031
C         21.70190       39.50716       68.20937
O         21.72757       40.39596       67.36848
C         20.03888       40.46006       69.89616
C         19.79820       40.63758       71.42016
C         18.94668       39.56279       69.27204
C         18.48342       41.33576       71.76569
H         22.50742       41.73577       69.61987
H         21.51568       38.93188       70.26248
H         19.98861       41.45165       69.39374
H         20.61196       41.25767       71.85119
H         19.82160       39.64430       71.92252
H         18.94511       38.55829       69.74011
H         17.94130       40.01352       69.38309
H         19.10215       39.44994       68.17942
H         18.45325       42.34237       71.29925
H         17.60496       40.74451       71.44021
H         18.40987       41.45417       72.86525
N         21.80102       38.19596       67.83702
C         21.88461       37.73928       66.45016
C         20.55971       37.10069       66.05119
O         19.65063       37.09638       66.86084
C         23.08241       36.78874       66.28306
O         22.93344       35.65837       67.09832
H         21.72359       37.47108       68.56757
H         22.03666       38.59904       65.76214
H         24.00830       37.33914       66.56581
H         23.16925       36.47103       65.22106
H         23.77590       35.14092       67.00572
N         20.35016       36.59178       64.80522
C         19.04694       36.10521       64.34175
C         18.47709       34.98238       65.19597
O         17.33027       35.09210       65.60628
C         19.13292       35.65127       62.88267
H         21.13628       36.59983       64.13741
H         18.32455       36.95302       64.36444
H         18.12722       35.34227       62.52263
H         19.47913       36.49518       62.24804
H         19.83600       34.79980       62.77048
N         19.21474       33.88054       65.51218
C         18.69771       32.77188       66.31965
C         18.12650       33.26631       67.63743
O         16.98821       32.95366       67.95759
C         19.81387       31.75415       66.59258
H         20.19247       33.84404       65.18425
H         17.89344       32.24896       65.75600
H         20.64798       32.22177       67.15952
H         19.41870       30.90001       67.18376
H         20.21494       31.36030       65.63496
N         18.86685       34.08726       68.42507
C         18.42448       34.65183       69.69902
C         17.10569       35.40050       69.53616
O         16.16394       35.09653       70.25467
C         19.57858       35.52560       70.23191
C         19.43439       36.07545       71.65818
C         20.74999       36.66987       72.12715
O         21.72296       36.70728       71.38950
O         20.89125       37.10100       73.39063
H         19.80511       34.34091       68.07579
H         18.27014       33.82295       70.42619
H         19.78397       36.35840       69.52718
H         20.46840       34.85583       70.24763
H         19.18231       35.23773       72.34189
H         18.62282       36.83420       71.70733
N         16.94813       36.33494       68.55925
C         15.70460       37.02197       68.27463
H         14.89155       36.73910       68.97406
H         15.86614       38.11825       68.33303
H         15.37889       36.76913       67.24164
H         17.73587       36.54222       67.94615
Ca        22.92253       37.88472       74.05872
O         24.70609       36.71482       72.10548
H         25.28927       36.18898       72.70909
H         25.05812       36.53995       71.19847
O         22.75718       34.92809       74.11160
H         22.42765       34.10131       74.54333
H         23.34782       34.61360       73.38226

Ca 1.0



