%chk=holoCaM-CaMKII.loop2.water2.frame4.chk
%nprocshared=20
%mem=10GB
%nosave
#b3lyp/svp scf=(tight,noincore,xqc) Test 
#IOP(5/87=12) Density=Current Pop=(MK,readradii) iop(6/33=2) iop(6/42=6)

holoCaM-CaMKII.loop2.water2.frame4 

   -2  1 
C         67.71336       64.82568       26.91793
C         68.16848       65.42718       25.61775
O         68.14668       66.63936       25.48564
H         66.65056       65.07655       27.10682
H         67.82406       63.71979       26.91449
H         68.33856       65.22612       27.74501
N         68.62736       64.62759       24.61917
C         69.22609       65.12283       23.38409
C         68.24447       65.91383       22.51800
O         67.16561       65.41088       22.23775
C         69.75493       63.92209       22.56712
C         70.72284       64.32316       21.49620
O         71.14941       63.48274       20.72294
O         71.20858       65.57494       21.44760
H         68.61806       63.60854       24.78185
H         70.09704       65.75155       23.67067
H         68.89477       63.37298       22.12656
H         70.31135       63.22085       23.22353
N         68.59951       67.12340       21.98983
C         67.76953       67.90486       21.07676
C         68.39035       68.03865       19.67955
O         67.72981       68.59477       18.81313
C         67.55773       69.30164       21.67679
H         69.52206       67.49889       22.21592
H         66.78020       67.41624       20.94981
H         68.53511       69.82227       21.79346
H         66.90704       69.92095       21.02339
H         67.08208       69.22404       22.67707
N         69.65435       67.60262       19.39224
C         70.31869       67.78440       18.10450
C         70.93526       66.48686       17.56353
O         70.58040       66.11435       16.45339
C         71.32341       68.96077       18.19006
C         72.14373       69.04557       19.45188
O         72.01134       70.11563       20.25918
O         72.93025       68.17266       19.75573
H         70.22298       67.20841       20.14113
H         69.58749       68.11002       17.32954
H         70.72192       69.89556       18.16987
H         71.97386       68.97098       17.28817
N         71.86010       65.75515       18.25496
C         72.51415       64.55965       17.72077
C         74.03691       64.64714       17.72964
O         74.67144       63.68164       17.32864
H         72.10640       66.03545       19.20867
H         72.18593       64.34626       16.68132
H         72.22603       63.69102       18.34804
N         74.69643       65.75445       18.17851
C         76.15405       65.89857       18.24251
C         76.85833       64.96976       19.24626
O         78.07081       65.08036       19.36796
C         76.51303       67.38226       18.50950
C         76.00527       67.96881       19.80171
N         76.18812       69.28693       20.03515
O         75.41188       67.28319       20.62113
H         74.13570       66.56812       18.44500
H         76.57035       65.67540       17.23552
H         76.06822       67.98283       17.68556
H         77.61447       67.52197       18.46942
H         76.67666       69.88230       19.35263
H         75.82243       69.72738       20.88234
N         76.20306       64.00104       19.95207
C         76.88003       63.03896       20.81064
C         77.30673       63.56519       22.16768
O         77.88428       62.78286       22.91011
H         75.20271       63.84852       19.80367
H         77.75046       62.61209       20.26559
H         76.17966       62.20093       21.01748
N         77.04588       64.83696       22.58816
C         77.41789       65.33699       23.91413
C         76.18865       65.80944       24.67783
O         75.09723       65.79492       24.12691
C         78.43547       66.50116       23.77604
C         79.71609       66.07283       23.04691
O         77.85348       67.62257       23.15451
H         76.55910       65.48111       21.95255
H         77.89669       64.53373       24.51634
H         78.75306       66.81902       24.79144
H         77.75832       67.42844       22.18705
H         79.49387       65.76132       22.00430
H         80.43005       66.92287       23.01653
H         80.19494       65.22507       23.58100
N         76.30713       66.30537       25.94290
C         75.20841       66.95083       26.65045
C         75.53205       68.43109       26.69042
O         76.58950       68.80348       27.18233
C         74.97296       66.35557       28.07221
C         74.66526       64.83739       27.97980
C         73.81092       67.10751       28.76415
C         74.42149       64.16486       29.33582
H         77.23696       66.31920       26.38982
H         74.25836       66.81698       26.09442
H         75.89301       66.49622       28.68186
H         75.53033       64.32615       27.50624
H         73.77083       64.66828       27.34278
H         74.02765       68.19153       28.84011
H         72.86431       66.97399       28.19696
H         73.65787       66.75909       29.80452
H         73.50556       64.55549       29.82511
H         74.26750       63.07547       29.18628
H         75.29205       64.31390       30.00830
N         74.64754       69.33450       26.18800
C         74.87497       70.76957       26.16411
C         74.17535       71.42548       27.33253
O         73.57277       70.72755       28.12977
C         74.43792       71.34492       24.80343
C         75.42153       70.94959       23.73280
O         76.20356       71.78709       23.31444
O         75.39871       69.74659       23.12975
H         73.73164       69.00114       25.86562
H         75.95156       71.00426       26.31973
H         74.46812       72.45122       24.86971
H         73.38935       71.07383       24.53947
N         74.29258       72.76509       27.55454
C         73.77259       73.40897       28.75293
C         72.25752       73.24195       28.89515
O         71.85393       72.75707       29.94231
C         74.20746       74.89476       28.83003
C         73.77151       75.53146       30.12519
C         72.79914       76.54637       30.12695
C         74.33109       75.11234       31.34408
C         72.38885       77.12496       31.33121
C         73.92422       75.69978       32.54456
C         72.95189       76.70324       32.53877
H         74.83073       73.33560       26.88459
H         74.25511       72.91179       29.62536
H         73.80705       75.47659       27.98827
H         75.31357       74.97520       28.75086
H         72.34979       76.88097       29.19973
H         75.08694       74.33712       31.36372
H         71.63337       77.89976       31.32795
H         74.36290       75.37571       33.47917
H         72.63506       77.15388       33.46993
N         71.34542       73.60906       27.93529
C         69.89729       73.50072       28.11097
C         69.45066       72.09229       28.44019
O         68.68175       71.89491       29.37033
C         69.32698       73.91299       26.74583
C         70.37674       74.87495       26.24681
C         71.65516       74.13834       26.62115
H         69.57623       74.22511       28.89283
H         69.34773       73.05315       26.03755
H         68.28794       74.30370       26.78579
H         70.29587       75.14249       25.17261
H         70.31618       75.80410       26.85988
H         71.85058       73.28470       25.93322
H         72.48627       74.85014       26.56496
N         69.94141       71.05889       27.70580
C         69.59956       69.65649       27.90264
C         69.87200       69.23700       29.33672
O         68.99251       68.67624       29.97443
C         70.44717       68.77890       26.96688
C         70.24808       69.04457       25.45617
C         71.22405       68.21571       24.67275
O         71.33122       68.31584       23.34665
O         72.00285       67.47196       25.24218
H         70.63705       71.29603       26.98439
H         68.52612       69.48584       27.66541
H         70.21698       67.70773       27.16307
H         71.51878       68.95645       27.21342
H         70.45992       70.10317       25.20519
H         69.20822       68.82909       25.14183
N         71.07433       69.50336       29.91246
C         71.40105       69.13605       31.26971
H         72.41679       69.51169       31.52261
H         70.67181       69.59034       31.97240
H         71.39454       68.03143       31.37300
H         71.77876       70.01263       29.37474
Ca        73.45210       68.70522       22.84583
O         73.91808       64.76624       21.91406
H         74.02862       63.87371       22.32793
H         73.52338       64.58385       21.02718
O         72.42973       64.64972       24.54215
H         72.31855       63.66717       24.56232
H         72.21638       64.93946       25.46332

Ca 1.0



