%chk=holoCaM.loop1.water2.frame109.chk
%nprocshared=20
%mem=10GB
%nosave
#b3lyp/svp scf=(tight,noincore,xqc) Test 
#IOP(5/87=12) Density=Current Pop=(MK,readradii) iop(6/33=2) iop(6/42=6)

holoCaM.loop1.water2.frame109 

   0  1 
C        -21.08227       11.98773      100.83284
C        -22.13939       12.66177      100.02802
O        -23.30945       12.53274      100.35566
H        -20.33798       12.72896      101.18427
H        -21.53045       11.45992      101.70083
H        -20.58598       11.23863      100.17919
N        -21.79074       13.39123       98.93350
C        -22.76959       13.90706       97.99469
C        -23.37993       12.72220       97.24168
O        -22.79056       12.19577       96.30914
C        -22.12265       14.95597       97.07777
C        -22.96620       15.22644       95.88562
O        -22.50307       14.98922       94.78377
O        -24.26429       15.54226       95.97383
H        -20.78794       13.53084       98.73624
H        -23.56933       14.44904       98.55267
H        -21.14948       14.57394       96.69998
H        -21.92835       15.88912       97.65118
N        -24.53552       12.19889       97.71241
C        -25.22441       11.01559       97.23127
C        -25.90311       11.24442       95.88490
O        -25.85563       10.36105       95.04128
C        -26.27712       10.62865       98.30194
C        -26.77735        9.19153       98.15755
C        -27.67820        8.81645       99.34551
C        -28.03460        7.32301       99.37313
N        -28.77980        6.90472       98.18681
H        -24.89942       12.62097       98.56184
H        -24.49259       10.17848       97.18501
H        -27.11933       11.35831       98.31348
H        -25.77871       10.67372       99.29755
H        -25.89209        8.51836       98.16832
H        -27.31651        9.07331       97.19533
H        -28.60182        9.43509       99.32992
H        -27.13709        9.03103      100.29478
H        -28.65147        7.13141      100.27895
H        -27.10395        6.71816       99.46159
H        -28.17827        6.96994       97.33499
H        -29.06729        5.90682       98.30502
H        -29.63433        7.49576       98.07112
N        -26.57828       12.40836       95.63773
C        -27.40570       12.65920       94.44900
C        -26.75971       13.56120       93.38909
O        -27.38563       13.77671       92.35990
C        -28.82734       13.13759       94.85155
C        -28.92887       14.40491       95.67071
O        -27.84379       15.00458       96.18511
O        -30.03171       14.83469       95.96341
H        -26.50405       13.14104       96.35181
H        -27.55735       11.69861       93.90727
H        -29.31480       12.33209       95.44393
H        -29.42468       13.27636       93.92500
N        -25.47391       13.99391       93.49210
C        -24.72177       14.54164       92.36384
C        -24.92575       16.01377       92.05902
O        -25.14142       16.36395       90.90809
H        -24.93901       13.73712       94.33175
H        -24.88062       13.91404       91.45938
H        -23.64659       14.44567       92.61220
N        -24.77508       16.93483       93.04447
C        -24.72560       18.38412       92.87029
C        -23.47384       18.99503       93.53727
O        -23.33534       20.20991       93.49287
C        -26.02008       19.02786       93.42229
C        -26.47653       18.44823       94.73037
O        -27.60106       17.98851       94.83968
O        -25.64482       18.38425       95.77208
H        -24.68099       16.58286       93.99627
H        -24.67250       18.65978       91.79304
H        -26.84210       18.86607       92.69316
H        -25.87731       20.12710       93.51396
N        -22.50419       18.23645       94.13548
C        -21.31467       18.79518       94.77004
C        -21.57420       19.47223       96.10971
O        -20.66174       20.10993       96.61471
H        -22.56557       17.21965       94.09235
H        -20.82227       19.49062       94.05700
H        -20.59136       17.97700       94.98434
N        -22.76537       19.34730       96.76306
C        -23.05191       19.91091       98.08626
C        -23.58638       18.86633       99.05304
O        -23.92622       17.75753       98.66362
C        -24.01026       21.14432       98.02297
C        -23.24661       22.41822       97.66183
O        -25.12445       20.96100       97.18490
H        -23.48723       18.78001       96.32026
H        -22.10260       20.24979       98.55245
H        -24.41651       21.34368       99.03703
H        -24.82784       20.56728       96.32949
H        -22.49838       22.61622       98.46363
H        -22.71857       22.32013       96.69306
H        -23.93727       23.28711       97.63074
N        -23.60659       19.18140      100.38142
C        -24.00264       18.29060      101.46137
C        -25.10168       18.95665      102.29418
O        -24.89711       20.02550      102.85088
C        -22.72490       17.89769      102.27674
C        -21.95224       16.80787      101.46922
C        -23.04069       17.42024      103.70483
C        -20.70954       16.24197      102.15639
H        -23.25459       20.11007      100.66088
H        -24.42446       17.34768      101.05675
H        -22.08690       18.79973      102.40991
H        -21.64501       17.23249      100.48951
H        -22.62382       15.94279      101.26764
H        -22.10568       17.22399      104.26668
H        -23.56515       18.21336      104.27577
H        -23.65033       16.50819      103.70261
H        -19.99283       17.05137      102.40024
H        -20.98573       15.68870      103.07888
H        -20.21868       15.51055      101.47885
N        -26.30462       18.32865      102.41714
C        -27.43634       18.75565      103.22631
C        -27.25123       18.30943      104.66510
O        -26.25616       17.67837      104.99024
C        -28.75346       18.10847      102.67209
C        -29.12346       18.64142      101.28320
O        -28.68112       16.70077      102.69024
H        -26.40728       17.43246      101.95813
H        -27.54390       19.86043      103.18620
H        -29.61916       18.38026      103.30624
H        -28.39535       16.37252      101.80051
H        -28.31941       18.42675      100.55239
H        -30.06590       18.16110      100.94013
H        -29.28828       19.73709      101.33564
N        -28.24185       18.55096      105.56710
C        -28.27716       17.99646      106.91557
C        -28.12477       16.48055      106.87828
O        -27.25995       15.97054      107.57588
C        -29.60685       18.37890      107.62458
C        -29.62848       19.86942      108.00212
O        -30.69979       18.05642      106.79594
H        -29.04926       19.10641      105.25161
H        -27.43147       18.40126      107.51709
H        -29.68044       17.79937      108.57164
H        -31.52545       18.40374      107.22197
H        -28.77929       20.09733      108.68131
H        -29.56445       20.52182      107.10751
H        -30.56731       20.10479      108.54832
N        -28.93335       15.69439      106.11041
C        -28.82767       14.23542      106.09888
C        -27.49816       13.73318      105.54135
O        -26.99848       12.73599      106.04387
C        -30.04035       13.55650      105.41856
C        -30.22787       13.85944      103.91962
C        -31.48379       13.17293      103.34741
C        -31.30905       11.66100      103.11645
N        -32.55759       11.06311      102.63891
H        -29.66777       16.15007      105.55190
H        -28.89198       13.89652      107.15784
H        -30.95470       13.89787      105.95585
H        -29.95090       12.46159      105.57380
H        -29.33641       13.56492      103.32708
H        -30.37534       14.95161      103.80798
H        -31.71294       13.62730      102.35953
H        -32.34706       13.36949      104.02119
H        -31.00002       11.14132      104.04707
H        -30.51270       11.50812      102.35296
H        -32.39370       10.05746      102.40359
H        -33.28406       11.11787      103.38981
H        -32.90066       11.55818      101.78375
N        -26.87860       14.34945      104.49248
C        -25.59370       13.89783      103.94868
C        -24.44617       14.17517      104.92219
O        -23.37868       13.60330      104.74855
C        -25.32302       14.56837      102.57398
C        -26.36270       14.12269      101.52465
C        -26.30683       14.86403      100.21091
O        -26.22800       14.24556       99.17471
O        -26.47641       16.18861      100.13174
H        -27.33794       15.16546      104.06950
H        -25.64809       12.79832      103.78349
H        -24.30416       14.31894      102.20471
H        -25.38339       15.65939      102.71688
H        -27.38123       14.27073      101.92369
H        -26.22160       13.03524      101.33654
N        -24.58241       15.05641      105.95415
C        -23.53026       15.33820      106.90735
H        -22.63071       15.73217      106.39014
H        -23.88014       16.10554      107.63358
H        -23.27055       14.41805      107.47095
H        -25.45859       15.57187      106.06531
Ca       -26.09843       16.07248       97.10158
O        -29.00650       16.42956       98.66695
H        -29.26405       16.21930       99.59653
H        -29.13814       15.57174       98.20055
O        -27.28574       19.15507       97.95648
H        -28.19575       18.89080       98.23472
H        -27.42784       19.99584       97.45479

Ca 1.0



