%chk=holoCaM.loop3.water3.frame483.chk
%nprocshared=20
%mem=10GB
%nosave
#b3lyp/svp scf=(tight,noincore,xqc) Test 
#IOP(5/87=12) Density=Current Pop=(MK,readradii) iop(6/33=2) iop(6/42=6)

holoCaM.loop3.water3.frame483 

   0  1 
C         89.25776       59.19511       53.94830
C         90.29339       58.11530       53.90398
O         91.44114       58.42307       53.61284
H         88.26119       58.78837       54.21742
H         89.55096       59.95974       54.69686
H         89.18723       59.67173       52.94736
N         89.95605       56.81649       54.15505
C         90.91104       55.72476       54.06864
C         90.51507       54.84877       52.89765
O         89.44431       54.25766       52.91738
C         90.98507       54.96712       55.41109
C         92.10909       53.96988       55.44792
O         92.85282       53.76041       54.34854
O         92.39809       53.42086       56.49469
H         88.97542       56.58530       54.37613
H         91.92405       56.13960       53.87906
H         90.01946       54.47550       55.65479
H         91.20499       55.71939       56.20106
N         91.31555       54.79584       51.79697
C         90.94941       54.10837       50.56765
C         90.83518       52.61037       50.77113
O         89.83197       52.04688       50.35633
C         91.91975       54.44435       49.40963
C         91.93975       55.96353       49.11103
C         92.54463       56.32320       47.74574
C         94.01861       55.93661       47.58055
N         94.49861       56.32050       46.25198
H         92.19360       55.32869       51.80952
H         89.95803       54.48852       50.23049
H         91.53459       53.91957       48.50758
H         92.94689       54.07789       49.61800
H         92.46947       56.51512       49.91742
H         90.89137       56.33278       49.07865
H         92.45139       57.42388       47.61073
H         91.94466       55.82858       46.95136
H         94.13937       54.83907       47.70388
H         94.62765       56.45224       48.35233
H         95.50189       56.04474       46.15322
H         93.94035       55.83232       45.51372
H         94.41734       57.35563       46.12312
N         91.79475       51.90622       51.43931
C         91.70527       50.46153       51.65926
C         91.25258       50.10327       53.07008
O         91.12289       48.91774       53.34626
C         93.02156       49.75523       51.25866
C         94.23220       50.11071       52.08154
O         94.16573       51.01103       53.07677
O         95.29886       49.57000       51.83923
H         92.58268       52.42772       51.84956
H         90.92011       50.03247       50.99896
H         93.24195       49.98766       50.19479
H         92.86978       48.65683       51.34327
N         90.91813       51.05200       53.99452
C         90.34876       50.71350       55.29025
C         91.28878       49.98431       56.22931
O         90.81804       49.55715       57.27410
H         90.97935       52.04836       53.75153
H         89.45047       50.08104       55.11575
H         90.01023       51.63880       55.80498
N         92.61559       49.80227       55.95540
C         93.50071       49.03852       56.83608
C         93.68293       49.66888       58.22008
O         94.29007       49.02916       59.06883
C         94.86273       48.77227       56.15288
C         95.77122       49.97777       56.09619
N         97.01884       49.91754       56.61846
O         95.38859       51.00957       55.57049
H         92.99529       50.16849       55.07618
H         93.02066       48.04263       56.96444
H         94.67734       48.39892       55.12126
H         95.38335       47.95976       56.70366
H         97.37037       49.05289       57.05466
H         97.64667       50.73210       56.57455
N         93.17821       50.90193       58.52531
C         93.22093       51.50524       59.84491
C         93.91305       52.85540       59.88221
O         93.86620       53.47472       60.93267
H         92.68749       51.44009       57.80515
H         93.71275       50.84142       60.58912
H         92.16924       51.65350       60.17134
N         94.61928       53.35622       58.82054
C         95.38104       54.60886       58.90372
C         95.15359       55.49687       57.69225
O         94.58362       55.05145       56.71417
C         96.87453       54.23972       58.95281
C         97.17635       53.40479       60.16915
C         97.35215       52.01569       60.05300
C         97.26294       54.00756       61.43304
C         97.60427       51.24096       61.18789
C         97.53306       53.23344       62.56463
C         97.70094       51.84564       62.44571
O         97.95385       51.08569       63.52992
H         94.71819       52.78685       57.96866
H         95.10204       55.18242       59.81371
H         97.53940       55.13095       58.94440
H         97.09775       53.65631       58.03420
H         97.27255       51.52978       59.08863
H         97.13192       55.07761       61.53805
H         97.72315       50.16936       61.08873
H         97.60858       53.71286       63.53224
H         98.03406       51.46573       64.41635
N         95.63584       56.77687       57.68578
C         95.65262       57.61806       56.49176
C         97.09907       58.03170       56.26363
O         97.62603       58.82143       57.03376
C         94.69532       58.84245       56.63516
C         93.23250       58.34616       56.80049
C         94.81664       59.77995       55.41456
C         92.20646       59.46438       57.00698
H         96.05519       57.15179       58.54910
H         95.30929       57.03496       55.60867
H         94.98796       59.41865       57.54094
H         93.17247       57.68180       57.68834
H         92.93416       57.75471       55.90710
H         95.85821       60.13815       55.28849
H         94.49813       59.25833       54.48961
H         94.19937       60.69134       55.54177
H         91.20084       59.01696       57.15556
H         92.46538       60.06641       57.90308
H         92.13879       60.12780       56.12110
N         97.82060       57.47578       55.24932
C         99.22370       57.80185       54.99386
C         99.36795       59.19771       54.40519
O         98.37127       59.87219       54.21531
C         99.83328       56.75392       54.04346
O         99.18204       56.76980       52.80075
H         97.36712       56.75074       54.67638
H         99.79300       57.73566       55.94746
H         99.74994       55.75586       54.53222
H        100.91592       56.93449       53.88327
H         98.92050       55.83532       52.59299
N        100.59309       59.68940       54.06804
C        100.78952       60.98131       53.41294
C        100.11425       61.01373       52.05126
O         99.35098       61.93201       51.78798
C        102.28534       61.26098       53.23499
H        101.42289       59.11153       54.27058
H        100.37948       61.79321       54.05512
H        102.43186       62.25236       52.75429
H        102.78512       61.27712       54.22657
H        102.76527       60.48213       52.60478
N        100.34202       60.01935       51.14480
C         99.74290       59.96922       49.81136
C         98.23695       60.10238       49.87645
O         97.67552       60.93745       49.18109
C        100.10039       58.63990       49.12900
H        100.95475       59.24052       51.43342
H        100.15000       60.79570       49.18803
H        101.20224       58.53755       49.03961
H         99.71315       57.77767       49.71565
H         99.65998       58.59794       48.10954
N         97.52726       59.31723       50.72565
C         96.07738       59.36541       50.86302
C         95.60810       60.76474       51.22822
O         94.79193       61.32224       50.50726
C         95.62550       58.34665       51.92674
C         95.92288       56.90135       51.48774
C         95.46703       55.92676       52.52130
O         94.29951       55.93227       52.86803
O         96.30198       55.01152       53.05410
H         98.06188       58.66737       51.31946
H         95.60268       59.08418       49.89528
H         94.52687       58.44861       52.07509
H         96.13562       58.55833       52.89195
H         96.99943       56.73658       51.29242
H         95.36823       56.69368       50.55029
N         96.09826       61.40368       52.32194
C         95.69369       62.74033       52.69509
H         94.60740       62.75820       52.92218
H         96.25293       63.06298       53.59980
H         95.91786       63.45022       51.87063
H         96.79737       60.93408       52.90096
Ca        95.08576       53.57466       54.27120
O         98.16367       53.76857       55.42269
H         97.84066       52.96947       55.90682
H         98.95872       53.44777       54.92788
O         97.64496       51.60339       53.26690
H         98.40536       51.35167       52.68536
H         97.19493       50.74599       53.47049
O         95.52614       52.89125       51.17137
H         95.14533       53.31235       50.36140
H         96.15560       52.20965       50.82658

Ca 1.0



