%chk=holoCaM-CaMKII.loop2.water1.frame280.chk
%nprocshared=20
%mem=10GB
%nosave
#b3lyp/svp scf=(tight,noincore,xqc) Test 
#IOP(5/87=12) Density=Current Pop=(MK,readradii) iop(6/33=2) iop(6/42=6)

holoCaM-CaMKII.loop2.water1.frame280 

   -2  1 
C         27.91668       47.50250       66.82714
C         28.96090       48.15945       65.98453
O         29.53141       49.15508       66.40977
H         26.95240       47.47830       66.28200
H         28.24137       46.46466       67.05601
H         27.78913       48.05081       67.78476
N         29.30591       47.61808       64.78367
C         30.42144       48.13851       64.01517
C         30.10137       49.52466       63.46420
O         29.21860       49.63771       62.62422
C         30.80946       47.15134       62.89111
C         32.19841       47.39549       62.39006
O         32.65257       46.70095       61.50337
O         32.96315       48.33290       62.97111
H         28.82855       46.75767       64.47179
H         31.27049       48.17904       64.72528
H         30.06764       47.19700       62.06278
H         30.81912       46.11524       63.29193
N         30.74229       50.63338       63.93698
C         30.40657       51.98477       63.49995
C         30.82776       52.21739       62.05544
O         29.96224       52.38419       61.20758
C         31.04073       53.02697       64.43652
H         31.43103       50.51394       64.69023
H         29.30370       52.11077       63.59281
H         30.75149       54.05375       64.12811
H         30.68456       52.86067       65.47610
H         32.14800       52.95300       64.44887
N         32.14838       52.27268       61.70938
C         32.61591       52.50378       60.33788
C         32.36537       51.30867       59.40531
O         32.61874       51.45120       58.21682
C         34.12301       52.90489       60.31316
C         35.03512       51.85570       60.89055
O         36.24482       52.01141       60.91715
O         34.47506       50.77421       61.44110
H         32.84127       52.20476       62.46687
H         32.06060       53.38006       59.93448
H         34.25781       53.84077       60.89834
H         34.42506       53.11072       59.26397
N         31.86298       50.11485       59.84819
C         31.52685       49.01240       58.95491
C         32.69856       48.30043       58.29197
O         32.42492       47.43834       57.46828
H         31.63004       49.99326       60.84251
H         30.84752       49.40384       58.16501
H         30.96157       48.24258       59.52297
N         34.00924       48.57821       58.56567
C         35.10923       47.93997       57.83026
C         35.23247       46.42239       58.03951
O         35.98382       45.80434       57.29822
C         36.45317       48.65198       58.11567
C         36.95922       48.52363       59.52946
N         38.10073       49.14840       59.89591
O         36.35015       47.85729       60.34666
H         34.22977       49.30931       59.25509
H         34.89827       48.10597       56.75008
H         36.32640       49.73302       57.89015
H         37.23430       48.24807       57.43672
H         38.62889       49.71719       59.22008
H         38.45924       49.07088       60.85686
N         34.54179       45.75855       59.01280
C         34.54447       44.30905       59.18055
C         35.09046       43.82033       60.51548
O         35.01475       42.62058       60.74062
H         33.95089       46.29803       59.64623
H         35.13030       43.80705       58.37993
H         33.49320       43.96195       59.08536
N         35.70781       44.64418       61.41567
C         36.34457       44.16049       62.64452
C         35.93997       44.98614       63.86418
O         36.10820       46.19558       63.86860
C         37.88658       44.15734       62.49720
C         38.37361       43.10030       61.49428
O         38.38484       45.42685       62.16384
H         35.81446       45.63782       61.18402
H         36.06704       43.10100       62.83977
H         38.32484       43.86570       63.47775
H         38.18005       45.59765       61.20737
H         38.03722       42.08989       61.81295
H         37.98414       43.30297       60.47510
H         39.48366       43.10111       61.46100
N         35.44657       44.36004       64.96897
C         35.11020       45.02787       66.22956
C         36.35591       45.65522       66.87147
O         37.34880       44.96654       67.05862
C         34.41568       44.00703       67.19216
C         33.04558       43.57872       66.58726
C         34.20748       44.59678       68.60281
C         32.37000       42.42533       67.32953
H         35.32601       43.33729       64.91706
H         34.36307       45.81931       66.04043
H         35.07796       43.11852       67.29253
H         33.17651       43.23433       65.54129
H         32.35757       44.45382       66.56400
H         33.75151       43.85770       69.28942
H         35.17997       44.86291       69.05999
H         33.56112       45.49790       68.56369
H         32.12280       42.68999       68.37588
H         31.41852       42.16996       66.81646
H         33.02857       41.53132       67.31685
N         36.31152       46.94547       67.32636
C         37.37004       47.61223       68.09104
C         37.00571       47.63052       69.56936
O         35.96311       47.11222       69.92271
C         37.51214       49.07539       67.61422
C         37.91754       49.18243       66.18359
O         37.19639       49.75569       65.38224
O         39.10714       48.69125       65.79049
H         35.42778       47.45600       67.22496
H         38.33546       47.07009       67.98913
H         38.28876       49.60460       68.20191
H         36.54289       49.60384       67.76900
N         37.81961       48.20590       70.50136
C         37.47519       48.28810       71.92086
C         36.19947       49.10496       72.17237
O         35.30946       48.55890       72.80684
C         38.64691       48.85748       72.75084
C         38.36416       48.78743       74.23805
C         38.18866       47.54139       74.87056
C         38.27522       49.96056       75.00770
C         37.92629       47.47279       76.24179
C         38.01117       49.88642       76.38037
C         37.83689       48.64415       76.99634
H         38.72478       48.59281       70.19177
H         37.30834       47.24779       72.27911
H         38.85103       49.90152       72.43879
H         39.56714       48.26756       72.55014
H         38.25771       46.62079       74.30543
H         38.40494       50.93177       74.54742
H         37.79306       46.51029       76.71947
H         37.94116       50.79245       76.96819
H         37.63360       48.58835       78.05827
N         36.00809       50.39382       71.72700
C         34.78799       51.16433       71.97143
C         33.54897       50.45227       71.45467
O         32.54784       50.42708       72.15775
C         35.05520       52.50835       71.26900
C         36.04203       52.14803       70.17929
C         36.93612       51.15162       70.90615
H         34.62665       51.37263       73.05251
H         34.15394       53.07287       70.94493
H         35.62392       53.15267       71.97712
H         35.50105       51.62799       69.36379
H         36.58388       53.00477       69.72499
H         37.48317       50.56947       70.15123
H         37.64101       51.69181       71.57550
N         33.55745       49.81133       70.26024
C         32.41270       49.09276       69.70962
C         32.00833       47.95657       70.64118
O         30.83931       47.85375       70.98302
C         32.76196       48.57467       68.29764
C         33.09067       49.75291       67.34457
C         33.53844       49.32908       65.97913
O         33.87505       50.17693       65.16811
O         33.59245       48.03264       65.63630
H         34.44103       49.79817       69.73653
H         31.54946       49.78510       69.58999
H         31.90498       47.99991       67.88196
H         33.62915       47.89343       68.38164
H         33.91727       50.36671       67.74952
H         32.19613       50.40447       67.24472
N         32.94796       47.10437       71.13512
C         32.68043       46.02434       72.06145
H         31.60064       45.91783       72.28826
H         33.05356       45.07152       71.63039
H         33.22671       46.21517       73.01089
H         33.92225       47.25268       70.87583
Ca        35.05679       48.91760       62.47860
O         38.18179       48.26160       63.23162
H         38.93805       47.63777       63.36454
H         37.56718       47.78730       62.62224

Ca 1.0



