%chk=holoCaM.loop3.water2.frame68.chk
%nprocshared=20
%mem=10GB
%nosave
#b3lyp/svp scf=(tight,noincore,xqc) Test 
#IOP(5/87=12) Density=Current Pop=(MK,readradii) iop(6/33=2) iop(6/42=6)

holoCaM.loop3.water2.frame68 

   0  1 
C         89.27633        1.13726       27.80368
C         89.63186        1.95784       29.00652
O         90.32864        1.47358       29.88669
H         88.17048        1.07467       27.70926
H         89.68923        1.62202       26.89453
H         89.68556        0.10900       27.88696
N         89.13896        3.21899       29.11753
C         89.37909        4.09576       30.25116
C         88.09796        4.15043       31.05520
O         87.41249        5.16308       31.08765
C         89.84893        5.46413       29.73187
C         90.08471        6.42459       30.84702
O         91.00589        6.16788       31.79553
O         89.42893        7.44700       30.89344
H         88.50498        3.56078       28.37745
H         90.17126        3.69601       30.92468
H         89.08555        5.87990       29.03743
H         90.79932        5.36389       29.18044
N         87.71282        3.02942       31.72006
C         86.47981        2.92190       32.48371
C         86.48178        3.89484       33.65707
O         85.52941        4.65366       33.77406
C         86.22450        1.46134       32.93393
C         86.18301        0.49655       31.72222
C         85.72749       -0.91802       32.10281
C         85.89400       -1.93016       30.94868
N         85.16456       -1.55029       29.73648
H         88.33330        2.20976       31.66121
H         85.62471        3.17415       31.81477
H         85.23770        1.43370       33.44702
H         87.00405        1.12224       33.65026
H         87.19255        0.42282       31.26946
H         85.48052        0.89620       30.95957
H         84.66470       -0.88239       32.42825
H         86.34137       -1.28737       32.95231
H         85.52713       -2.92040       31.29904
H         86.97418       -2.03734       30.70321
H         85.26117       -2.31662       29.03102
H         84.15086       -1.40855       29.94750
H         85.57223       -0.68318       29.31885
N         87.52593        3.96659       34.54333
C         87.53087        4.90968       35.67355
C         87.41774        6.37514       35.24287
O         87.08838        7.20688       36.07635
C         88.78177        4.73943       36.56414
C         90.03757        5.12594       35.83825
O         90.97819        4.20635       35.63281
O         90.20577        6.25748       35.41311
H         88.32488        3.32602       34.41394
H         86.63913        4.65943       36.28956
H         88.85392        3.67604       36.88537
H         88.69797        5.36705       37.47576
N         87.68879        6.76093       33.96449
C         87.49271        8.10883       33.46382
C         88.47592        9.14105       33.98234
O         88.02778       10.13846       34.52903
H         87.99597        6.05488       33.28560
H         86.44406        8.41678       33.66668
H         87.60538        8.09298       32.36330
N         89.82270        9.01197       33.77215
C         90.79297       10.07588       34.06038
C         91.60778       10.49091       32.81699
O         92.50120       11.31457       32.95597
C         91.73722        9.69642       35.22361
C         92.71809        8.58286       34.95994
N         93.73679        8.38046       35.82439
O         92.62461        7.88100       33.96718
H         90.16762        8.13810       33.35233
H         90.26086       10.98672       34.41418
H         91.15271        9.46153       36.13940
H         92.33851       10.60602       35.44583
H         93.84437        8.97364       36.66041
H         94.43945        7.65232       35.63961
N         91.33624       10.00009       31.57123
C         92.04442       10.39417       30.35667
C         93.38985        9.71127       30.12545
O         94.00909       10.02713       29.11767
H         90.51395        9.40895       31.44800
H         92.15820       11.50104       30.34259
H         91.41211       10.12364       29.48401
N         93.92022        8.79368       30.98542
C         95.25160        8.19549       30.83372
C         95.23495        6.67867       30.99299
O         94.71492        6.19165       31.98852
C         96.17435        8.81335       31.89923
C         96.43491       10.26545       31.57677
C         95.94181       11.29283       32.39562
C         97.17792       10.59851       30.42925
C         96.18054       12.63180       32.06363
C         97.42076       11.93324       30.10428
C         96.92017       12.95637       30.91962
O         97.14390       14.25019       30.61362
H         93.39858        8.57090       31.83908
H         95.68780        8.42451       29.83737
H         97.15615        8.29181       31.92563
H         95.69854        8.69306       32.89873
H         95.36311       11.05973       33.28040
H         97.57403        9.82219       29.78588
H         95.78875       13.41865       32.69512
H         97.99657       12.16891       29.21774
H         97.65187       14.51218       29.83202
N         95.84390        5.87368       30.06603
C         95.93843        4.41425       30.16600
C         97.40713        3.96978       30.14363
O         98.07459        4.19957       29.14249
C         95.15781        3.76028       28.98161
C         93.65246        4.12696       29.04891
C         95.34568        2.23011       28.96164
C         92.85683        3.60641       27.84581
H         96.27379        6.31619       29.23800
H         95.48125        4.06243       31.11213
H         95.57582        4.16059       28.03049
H         93.54548        5.23270       29.05831
H         93.20396        3.73012       29.98642
H         94.85097        1.76226       28.08999
H         96.41202        1.97193       28.84591
H         94.95580        1.77657       29.89218
H         92.83404        2.50013       27.81407
H         91.80373        3.93089       27.90487
H         93.28869        4.00211       26.90299
N         97.96589        3.28773       31.19268
C         99.32176        2.72007       31.14573
C         99.33679        1.40691       30.36783
O         98.27734        0.93449       29.99490
C         99.86266        2.47857       32.56778
O         99.08879        1.52580       33.25058
H         97.39848        3.14485       32.04244
H        100.00152        3.45503       30.66091
H         99.89465        3.44517       33.12264
H        100.90982        2.10970       32.52664
H         98.56217        2.00532       33.94130
N        100.49889        0.74599       30.08500
C        100.50282       -0.53202       29.36864
C         99.89582       -1.66073       30.19725
O         99.45635       -2.64374       29.61771
C        101.91881       -0.92098       28.93281
H        101.39654        1.17673       30.35584
H         99.90285       -0.40431       28.43915
H        102.34485       -0.12376       28.28660
H        102.57849       -1.06034       29.81531
H        101.89772       -1.86503       28.34560
N         99.89934       -1.61824       31.56101
C         99.30743       -2.65815       32.40001
C         97.79802       -2.59764       32.29954
O         97.15772       -3.59773       32.00770
C         99.72613       -2.45168       33.86212
H        100.34970       -0.81659       32.02687
H         99.68984       -3.65930       32.10075
H        100.83277       -2.50811       33.94047
H         99.39679       -1.46357       34.24813
H         99.29090       -3.24970       34.50129
N         97.17884       -1.40732       32.51609
C         95.74356       -1.17257       32.45166
C         95.16297       -1.64311       31.13245
O         94.25481       -2.46280       31.14607
C         95.51157        0.33532       32.66194
C         94.05708        0.77534       32.51753
C         93.90546        2.23389       32.81624
O         94.83415        2.90267       33.24587
O         92.69444        2.78549       32.71804
H         97.78637       -0.60005       32.72097
H         95.23840       -1.72722       33.27508
H         96.11120        0.91048       31.92168
H         95.87934        0.59600       33.68091
H         93.41521        0.20887       33.22602
H         93.70173        0.58563       31.48417
N         95.63521       -1.16665       29.95304
C         95.09524       -1.58195       28.67994
H         94.02365       -1.29745       28.61518
H         95.64866       -1.08155       27.85746
H         95.19950       -2.68157       28.56552
H         96.40534       -0.49178       29.95756
Ca        92.46018        4.55021       34.02124
O         93.43683        5.20937       36.73537
H         93.89748        5.96349       37.17824
H         93.50838        4.46277       37.38052
O         95.83066        5.59320       34.52263
H         96.11823        5.88200       35.42428
H         96.58953        5.82974       33.93215

Ca 1.0



