%chk=holoCaM-CaMKII.loop4.water2.frame15.chk
%nprocshared=20
%mem=10GB
%nosave
#b3lyp/svp scf=(tight,noincore,xqc) Test 
#IOP(5/87=12) Density=Current Pop=(MK,readradii) iop(6/33=2) iop(6/42=6)

holoCaM-CaMKII.loop4.water2.frame15 

   -3  1 
C         42.31777       50.04229       19.59105
C         41.76887       49.58107       20.90839
O         41.97873       50.25570       21.90389
H         43.42432       50.09601       19.64129
H         42.03061       49.35302       18.76871
H         41.90949       51.04855       19.35875
N         41.02248       48.44646       20.98150
C         40.38557       47.98188       22.20683
C         41.42377       47.60127       23.26441
O         42.37163       46.89753       22.94563
C         39.40591       46.83721       21.87034
C         38.49371       46.49256       23.00951
O         37.59691       45.69094       22.84160
O         38.66759       47.05852       24.21209
H         40.85299       47.92031       20.10981
H         39.75399       48.80939       22.58169
H         39.95191       45.93293       21.52493
H         38.74562       47.18731       21.04749
N         41.29081       48.04312       24.55227
C         42.28288       47.87110       25.60561
C         41.80380       46.82055       26.61099
O         42.46789       45.79802       26.71866
C         42.60199       49.27222       26.23027
C         43.06074       50.24433       25.10427
C         43.65287       49.17012       27.34702
C         43.39915       51.66816       25.54980
H         40.44904       48.56488       24.80532
H         43.22657       47.47677       25.16390
H         41.67286       49.68403       26.68433
H         42.23415       50.34204       24.37303
H         43.94644       49.82374       24.58059
H         43.30046       48.49396       28.15295
H         44.61810       48.79590       26.94770
H         43.81577       50.16186       27.81913
H         43.63710       52.27791       24.65088
H         42.54409       52.13910       26.07273
H         44.28874       51.68345       26.20956
N         40.67769       46.97538       27.37591
C         40.22279       45.93894       28.31447
C         39.66189       44.67734       27.63253
O         39.35073       43.73099       28.34229
C         39.30313       46.50861       29.42894
C         38.05433       47.24255       29.01299
O         37.09856       46.64719       28.27956
O         37.88971       48.39465       29.38009
H         40.16132       47.86264       27.32053
H         41.11383       45.59130       28.88614
H         39.91772       47.21608       30.03033
H         39.01256       45.67882       30.10915
N         39.58982       44.54834       26.27505
C         39.27909       43.29902       25.59337
C         37.85483       42.79378       25.72547
O         37.67103       41.66798       26.16544
H         39.87794       45.33124       25.67551
H         39.99406       42.51897       25.93586
H         39.45481       43.44346       24.50449
N         36.81038       43.52751       25.24763
C         35.45531       43.00475       25.06129
C         35.05163       43.06025       23.58029
O         33.88668       42.84410       23.27564
C         34.41957       43.72844       25.95747
C         34.20108       45.19822       25.72773
O         33.19891       45.81197       26.38288
O         34.89990       45.84324       24.96778
H         37.00551       44.47494       24.90768
H         35.39726       41.93773       25.37012
H         34.68663       43.58457       27.02559
H         33.44018       43.22708       25.79241
N         35.97131       43.30203       22.59833
C         35.64998       43.39475       21.18116
C         34.96383       44.69068       20.76922
O         34.72820       44.84337       19.57808
H         36.96837       43.35810       22.84305
H         35.05426       42.50930       20.87115
H         36.60561       43.36905       20.61249
N         34.63427       45.67349       21.65865
C         34.03129       46.94987       21.28001
C         34.87810       48.10798       21.77621
O         35.08375       48.23134       22.97788
C         32.61245       47.08210       21.85650
C         31.65007       46.06841       21.22032
C         30.21421       46.27617       21.63690
N         29.24372       45.50681       21.09412
O         29.91401       47.14446       22.44436
H         34.81746       45.52146       22.65304
H         33.94335       47.03045       20.17430
H         32.24088       48.10232       21.60978
H         32.62470       46.96858       22.96427
H         31.96232       45.03363       21.47891
H         31.69415       46.18898       20.11609
H         29.47713       44.77959       20.40208
H         28.25644       45.64721       21.35438
N         35.39529       49.00956       20.89384
C         36.19950       50.15467       21.30885
C         35.31077       51.17325       22.02136
O         34.43467       51.74448       21.38580
C         36.90911       50.81076       20.08143
C         37.77855       52.00949       20.49616
C         37.80791       49.80247       19.34288
H         35.22188       48.85907       19.88875
H         36.99966       49.78580       21.98805
H         36.13537       51.17189       19.36739
H         38.25823       52.46458       19.60343
H         37.16656       52.79739       20.96991
H         38.57366       51.69112       21.20335
H         38.28339       50.28826       18.46413
H         38.60593       49.43028       20.01656
H         37.23399       48.93445       18.96236
N         35.48444       51.44987       23.34472
C         34.71431       52.46473       24.07174
C         35.08994       53.86707       23.57978
O         36.00712       53.98381       22.78991
C         35.01046       52.29263       25.58558
C         34.21928       53.17324       26.51790
N         32.86871       53.10837       26.55866
O         34.80866       53.93462       27.26943
H         36.18325       50.89992       23.86076
H         33.63367       52.27494       23.89504
H         36.09738       52.45832       25.75793
H         34.77783       51.24231       25.86532
H         32.35174       52.46088       25.94735
H         32.33842       53.70561       27.21067
N         34.42615       54.98277       23.99977
C         34.82923       56.34600       23.63219
C         36.20363       56.66117       24.20396
O         37.06823       57.13407       23.47998
C         33.81454       57.36824       24.19158
C         34.21591       58.79780       23.88777
C         34.28359       59.26649       22.56336
C         34.53730       59.67363       24.93906
C         34.66477       60.58748       22.29968
C         34.92159       60.99043       24.67294
C         34.98557       61.45277       23.35141
O         35.35332       62.72197       23.08197
H         33.60964       54.86276       24.61443
H         34.84225       56.45236       22.52445
H         33.74157       57.22545       25.29202
H         32.80777       57.17446       23.76287
H         34.04044       58.61304       21.73519
H         34.49948       59.33584       25.96700
H         34.71213       60.93949       21.27653
H         35.17054       61.64930       25.49531
H         35.58251       63.35074       23.78161
N         36.45496       56.40767       25.51671
C         37.72049       56.65851       26.20282
C         38.87871       56.04141       25.43634
O         39.84241       56.73039       25.13424
C         37.60850       56.07305       27.63212
C         38.81327       56.36297       28.53090
C         38.56530       55.82308       29.91322
O         38.51797       56.66109       30.96654
O         38.39466       54.62641       30.08765
H         35.69218       55.97339       26.05651
H         37.88339       57.75631       26.27971
H         37.44869       54.97239       27.57120
H         36.71335       56.52346       28.11711
H         38.96277       57.46223       28.59197
H         39.73225       55.89701       28.11637
N         38.80528       54.74499       25.04446
C         39.82316       54.05293       24.25698
C         40.05857       54.75567       22.92718
O         41.20549       55.00429       22.58191
C         39.37958       52.59282       24.03355
C         39.30615       51.83602       25.37831
C         38.77445       50.44518       25.25533
O         38.69804       49.67360       26.35275
O         38.40807       49.99899       24.18321
H         37.94396       54.23698       25.29353
H         40.78809       54.02481       24.81199
H         40.11042       52.07028       23.37597
H         38.38630       52.58598       23.53311
H         38.64770       52.35426       26.10152
H         40.32078       51.78837       25.81768
N         39.01469       55.14319       22.14810
C         39.18179       55.83604       20.88958
H         39.76915       56.76724       21.03841
H         39.69629       55.17755       20.15977
H         38.18628       56.11407       20.47906
H         38.06254       54.97494       22.47798
Ca        37.58318       46.60096       26.10983
O         36.51926       50.58785       27.86716
H         36.41220       49.64222       27.59525
H         35.68822       50.79809       28.36025
O         34.29456       48.51506       26.68277
H         33.43739       48.40319       26.20098
H         34.06757       48.37052       27.63602

Ca 1.0



