%chk=holoCaM.loop3.water2.frame218.chk
%nprocshared=20
%mem=10GB
%nosave
#b3lyp/svp scf=(tight,noincore,xqc) Test 
#IOP(5/87=12) Density=Current Pop=(MK,readradii) iop(6/33=2) iop(6/42=6)

holoCaM.loop3.water2.frame218 

   0  1 
C         33.82296       60.20392       -2.65902
C         34.68232       59.15737       -2.01621
O         34.93875       58.12800       -2.62380
H         32.92008       60.37731       -2.03686
H         34.39536       61.15287       -2.73919
H         33.50790       59.88959       -3.67610
N         35.18724       59.37696       -0.77367
C         36.06983       58.43827       -0.09430
C         35.32407       57.15108        0.23838
O         34.34148       57.20748        0.96503
C         36.62467       59.10832        1.18138
C         37.70568       58.33473        1.87012
O         38.09077       57.25920        1.44442
O         38.29231       58.86851        2.95423
H         34.96519       60.27609       -0.31638
H         36.93608       58.23486       -0.76495
H         35.79902       59.30298        1.89961
H         37.07523       60.08414        0.90010
N         35.73930       55.95272       -0.26543
C         35.04568       54.69233       -0.00709
C         35.56835       54.04050        1.26570
O         34.79280       53.92402        2.20505
C         35.12024       53.74601       -1.23118
C         34.36180       54.32717       -2.44287
C         34.50881       53.51152       -3.74120
C         34.05458       52.04906       -3.63893
N         34.20880       51.37351       -4.92917
H         36.56325       55.94768       -0.87781
H         33.96348       54.90006        0.15619
H         34.65494       52.77458       -0.96062
H         36.17611       53.55333       -1.50012
H         34.74616       55.34600       -2.66318
H         33.28439       54.41274       -2.18260
H         35.56433       53.52132       -4.06127
H         33.91296       54.02024       -4.53075
H         32.98960       52.00623       -3.32338
H         34.67315       51.51571       -2.88526
H         33.91869       50.37379       -4.83303
H         33.60788       51.83295       -5.65159
H         35.20887       51.40412       -5.23639
N         36.84937       53.57243        1.38447
C         37.32157       52.91955        2.61176
C         37.43092       53.86991        3.80752
O         37.71350       53.39678        4.89984
C         38.65908       52.17347        2.39170
C         39.84631       53.03973        2.06539
O         40.93954       52.51649        1.92442
O         39.73106       54.37511        1.93488
H         37.47651       53.62833        0.57001
H         36.58133       52.12944        2.86991
H         38.52727       51.43240        1.57363
H         38.89878       51.60741        3.31936
N         37.22281       55.21136        3.68675
C         37.28298       56.14038        4.80043
C         38.65911       56.22805        5.42085
O         38.77447       55.99866        6.61621
H         36.97799       55.60538        2.77280
H         36.52844       55.84805        5.56285
H         37.00907       57.15338        4.43881
N         39.74425       56.58998        4.67470
C         41.07991       56.78686        5.23917
C         41.57033       58.21915        5.02152
O         42.77212       58.44466        4.97853
C         42.06970       55.73133        4.68899
C         42.36360       55.79337        3.20576
N         43.25501       54.93060        2.66861
O         41.81852       56.61451        2.48555
H         39.61197       56.75256        3.66695
H         41.06170       56.62772        6.33944
H         41.67494       54.71961        4.92664
H         43.03540       55.85065        5.22726
H         43.73015       54.23127        3.25754
H         43.47835       54.96754        1.66387
N         40.68477       59.25100        4.92394
C         41.06287       60.64531        4.73784
C         41.63571       60.99459        3.36893
O         41.84527       62.17763        3.14220
H         39.68062       59.05515        5.04107
H         41.76336       60.95835        5.54184
H         40.13875       61.25578        4.84462
N         41.89861       60.06229        2.40500
C         42.35175       60.39613        1.05171
C         41.40866       59.77727       -0.01070
O         40.25745       59.24411        0.57482
C         43.75098       59.82033        0.80129
C         44.81402       60.47534        1.64106
C         45.22339       59.89999        2.85342
C         45.43575       61.65244        1.19215
C         46.24073       60.49392        3.60676
C         46.46004       62.23876        1.94067
C         46.86750       61.65933        3.15106
O         47.86170       62.20761        3.87827
H         41.75533       59.06935        2.61385
H         42.38662       61.49912        0.90852
H         44.03315       59.94868       -0.26794
H         43.73568       58.72459        0.99072
H         44.75671       58.99212        3.21271
H         45.13958       62.10559        0.25371
H         46.54910       60.04174        4.54071
H         46.94048       63.13790        1.57527
H         48.33424       63.00090        3.58777
N         41.05741       60.73072       -1.07609
C         40.36530       60.10923       -2.22837
C         41.36590       59.74404       -3.33171
O         41.91662       60.64219       -3.95354
C         39.28797       61.10423       -2.76008
C         38.28999       61.49204       -1.63590
C         38.52484       60.52214       -3.96995
C         37.44135       62.71686       -1.98536
H         41.88337       61.29172       -1.38968
H         39.82144       59.19879       -1.90350
H         39.82495       62.02506       -3.07844
H         38.83919       61.76823       -0.71178
H         37.63723       60.62689       -1.39725
H         37.79591       61.24856       -4.37922
H         39.21841       60.28405       -4.79735
H         37.98082       59.59593       -3.68288
H         36.81030       62.55201       -2.87958
H         36.77212       62.95854       -1.13303
H         38.10596       63.59045       -2.16326
N         41.64388       58.44134       -3.63093
C         42.50840       58.03491       -4.74060
C         41.83695       58.31301       -6.07687
O         40.67284       58.68363       -6.08850
C         42.84188       56.53179       -4.64919
O         41.67295       55.76452       -4.74684
H         41.24360       57.71961       -3.03068
H         43.46274       58.60090       -4.66602
H         43.33977       56.32424       -3.67773
H         43.53937       56.25810       -5.47238
H         41.96357       54.81709       -4.80143
N         42.50766       58.16330       -7.25476
C         41.86860       58.41370       -8.54397
C         40.87487       57.32043       -8.92388
O         39.98873       57.58967       -9.71950
C         42.91060       58.57478       -9.65129
H         43.51018       57.91728       -7.22549
H         41.32950       59.38644       -8.47650
H         43.59940       59.40770       -9.39167
H         43.50161       57.64300       -9.77464
H         42.41462       58.82391      -10.61395
N         40.99117       56.04956       -8.43413
C         40.03442       54.98707       -8.74500
C         38.69240       55.32490       -8.14266
O         37.68386       55.32380       -8.83715
C         40.51099       53.64901       -8.15799
H         41.78270       55.82721       -7.81382
H         39.95248       54.85089       -9.84582
H         39.77774       52.84739       -8.39617
H         41.48971       53.36844       -8.59916
H         40.62427       53.70374       -7.05383
N         38.63584       55.64351       -6.82490
C         37.42645       55.98759       -6.09326
C         36.74645       57.16983       -6.76769
O         35.57016       57.07110       -7.08619
C         37.78889       56.24822       -4.61050
C         38.37102       54.96275       -3.95215
C         38.82616       55.21582       -2.55494
O         39.75735       56.14743       -2.35026
O         38.37682       54.58845       -1.61482
H         39.53461       55.67409       -6.32206
H         36.71784       55.12915       -6.10466
H         36.88298       56.56303       -4.04754
H         38.53253       57.07659       -4.55891
H         39.25619       54.59085       -4.49947
H         37.61858       54.15674       -3.96183
N         37.45379       58.28146       -7.10984
C         36.87512       59.36126       -7.88158
H         36.04310       59.83534       -7.32243
H         37.64964       60.12744       -8.10224
H         36.49665       58.96892       -8.85151
H         38.44962       58.33794       -6.87265
Ca        40.12029       57.20798       -0.42079
O         41.93419       53.97083       -0.73861
H         42.63380       53.93095       -1.43753
H         42.35943       53.55510        0.05180
O         43.04560       56.93102       -0.93660
H         43.60786       57.51021       -1.50943
H         43.68446       56.30864       -0.50813

Ca 1.0



