%chk=holoCaM.loop2.water2.frame160.chk
%nprocshared=20
%mem=10GB
%nosave
#b3lyp/svp scf=(tight,noincore,xqc) Test 
#IOP(5/87=12) Density=Current Pop=(MK,readradii) iop(6/33=2) iop(6/42=6)

holoCaM.loop2.water2.frame160 

   -2  1 
C        102.91152       84.58428       81.79317
C        103.74507       84.07280       82.93450
O        103.25053       83.94913       84.04382
H        101.87639       84.81634       82.11908
H        103.37439       85.49716       81.36334
H        102.86378       83.80486       81.00063
N        105.03540       83.72207       82.70282
C        105.91335       83.09438       83.68469
C        106.22546       83.97763       84.88972
O        106.67156       85.10213       84.71128
C        107.22466       82.70062       82.98458
C        108.10985       81.92935       83.90193
O        109.23203       82.33508       84.15667
O        107.65613       80.78996       84.45579
H        105.38906       83.84804       81.74041
H        105.42687       82.15563       84.03035
H        107.74960       83.60863       82.61449
H        106.99679       82.04934       82.11485
N        106.08619       83.47447       86.15461
C        106.43003       84.19358       87.37880
C        107.50339       83.48034       88.21889
O        107.82892       84.00444       89.27587
C        105.15847       84.35264       88.22175
H        105.72563       82.51820       86.25879
H        106.80852       85.21115       87.13874
H        104.37916       84.89129       87.64249
H        104.76058       83.35729       88.51711
H        105.36942       84.93751       89.14334
N        108.09787       82.30283       87.84254
C        109.02249       81.56746       88.72820
C        109.96471       80.55623       88.03604
O        110.75354       79.94454       88.74394
C        108.20874       80.85742       89.83594
C        107.25281       79.84992       89.27361
O        106.50315       79.23521       90.01488
O        107.18409       79.65044       87.94823
H        107.80939       81.88808       86.95261
H        109.70352       82.30035       89.21392
H        107.61869       81.60780       90.40351
H        108.88892       80.34625       90.55032
N        109.99789       80.35886       86.68645
C        110.97923       79.52015       86.01029
C        110.82532       78.01809       86.18278
O        111.71063       77.31348       85.71819
H        109.38910       80.90542       86.08725
H        111.98990       79.83049       86.35099
H        110.92529       79.71512       84.91615
N        109.75732       77.43727       86.80302
C        109.64260       75.98636       87.00134
C        109.42584       75.15954       85.71323
O        109.22239       73.95932       85.83852
C        108.56501       75.67156       88.07366
C        107.14230       75.93229       87.67385
N        106.13901       75.69753       88.54859
O        106.88211       76.34608       86.56045
H        109.03199       78.04633       87.20458
H        110.58752       75.63423       87.46993
H        108.79003       76.26954       88.98393
H        108.63487       74.59723       88.34897
H        106.33545       75.35682       89.50054
H        105.16157       75.85627       88.27013
N        109.49396       75.69442       84.45407
C        109.35504       74.90377       83.23451
C        107.91908       74.62259       82.83110
O        107.72971       73.96448       81.81805
H        109.74617       76.67858       84.32807
H        109.93338       73.95752       83.33195
H        109.80008       75.47144       82.38967
N        106.86028       75.07077       83.56203
C        105.46613       74.79172       83.23523
C        104.58475       76.03126       83.35652
O        105.03346       77.08479       83.78225
C        104.93876       73.67699       84.18010
C        105.60244       72.33602       83.86596
O        105.17440       74.00059       85.52732
H        107.04666       75.57985       84.42451
H        105.37217       74.43781       82.18508
H        103.85178       73.50205       84.02551
H        104.55472       74.73799       85.76494
H        106.69889       72.38074       84.02718
H        105.17893       71.54544       84.51988
H        105.40144       72.05631       82.80841
N        103.26533       75.91801       83.04273
C        102.25454       76.94669       83.23312
C        101.42984       76.52708       84.43257
O        100.93555       75.40846       84.47803
C        101.41765       77.10741       81.92734
C        102.27193       77.84827       80.86539
C        100.09037       77.85648       82.17932
C        101.67861       77.80933       79.45690
H        102.92479       75.00244       82.71333
H        102.70674       77.93241       83.47747
H        101.15485       76.09086       81.55908
H        103.27734       77.38101       80.79833
H        102.40745       78.90853       81.17755
H         99.48992       77.94078       81.25230
H         99.45766       77.29177       82.89632
H        100.27414       78.87160       82.58833
H        102.34703       78.36340       78.76392
H        101.60785       76.75675       79.11039
H        100.67806       78.28158       79.40890
N        101.23868       77.41299       85.44652
C        100.50426       77.12186       86.66783
C         99.13001       77.71712       86.55265
O         98.81556       78.29663       85.52564
C        101.19851       77.79038       87.87404
C        102.65331       77.50521       87.96288
O        103.42395       77.82370       86.91330
O        103.15339       77.12747       89.00989
H        101.58561       78.37450       85.32516
H        100.42517       76.02405       86.82762
H        100.70501       77.51441       88.82953
H        101.12193       78.89475       87.75223
N         98.24440       77.62173       87.57144
C         96.93797       78.24790       87.51519
C         97.01789       79.78556       87.50065
O         96.43915       80.35488       86.58714
C         96.04015       77.69885       88.63040
C         94.60951       78.14184       88.45549
C         93.90751       77.85555       87.26558
C         93.95820       78.83664       89.48334
C         92.58652       78.27375       87.10733
C         92.63034       79.24220       89.32476
C         91.94686       78.96519       88.13696
H         98.50104       77.06304       88.40134
H         96.47438       77.91490       86.56215
H         96.44521       77.98600       89.62333
H         96.05141       76.58792       88.56960
H         94.37413       77.31341       86.45299
H         94.47614       79.05816       90.40788
H         92.06012       78.05794       86.18605
H         92.13169       79.77207       90.12414
H         90.92074       79.28324       88.01433
N         97.72794       80.54306       88.41112
C         97.81818       82.00835       88.36192
C         98.55495       82.55445       87.14405
O         98.65266       83.76922       87.02870
C         98.56617       82.37430       89.65057
C         99.45791       81.16844       89.84267
C         98.49549       80.02737       89.52600
H         96.80747       82.47177       88.37936
H         99.08371       83.35961       89.64132
H         97.84351       82.37099       90.49632
H        100.24536       81.19380       89.05351
H         99.95478       81.09539       90.83266
H         99.09886       79.13651       89.29890
H         97.80469       79.83355       90.37572
N         99.05905       81.74134       86.18076
C         99.70112       82.21349       84.96643
C         98.70044       82.07573       83.83503
O         98.42562       83.05954       83.16298
C        101.00391       81.42239       84.74348
C        101.94849       81.60761       85.95060
C        103.22352       80.82806       85.86818
O        103.48704       80.13219       84.90248
O        104.07828       80.87873       86.90459
H         98.96741       80.72560       86.27911
H         99.97267       83.29110       85.04124
H        101.50373       81.76776       83.81242
H        100.75831       80.34734       84.62582
H        101.43759       81.27046       86.87498
H        102.20220       82.68237       86.06470
N         98.03700       80.90517       83.63267
C         96.96878       80.76204       82.67154
H         96.15999       81.49013       82.89967
H         97.35153       80.92648       81.64528
H         96.53813       79.73901       82.74261
H         98.25075       80.09709       84.21885
Ca       105.48512       78.46610       87.24362
O        105.18190       79.94497       82.62627
H        104.36009       79.40410       82.53475
H        105.39566       80.22371       81.70222
O        107.78188       78.16663       83.74325
H        108.61665       78.51257       83.33987
H        107.12277       78.22276       83.00959

Ca 1.0



