%chk=holoCaM-CaMKII.loop2.water2.frame402.chk
%nprocshared=20
%mem=10GB
%nosave
#b3lyp/svp scf=(tight,noincore,xqc) Test 
#IOP(5/87=12) Density=Current Pop=(MK,readradii) iop(6/33=2) iop(6/42=6)

holoCaM-CaMKII.loop2.water2.frame402 

   -2  1 
C         62.98129       62.79343       59.26384
C         63.09516       61.51622       58.47195
O         62.80861       60.45481       59.00384
H         61.93357       62.93120       59.60604
H         63.65334       62.76124       60.14537
H         63.25580       63.67954       58.65023
N         63.48867       61.55886       57.17092
C         63.55626       60.39971       56.28325
C         64.58789       59.36798       56.71574
O         65.74898       59.71446       56.87999
C         63.86364       60.89463       54.85560
C         64.04665       59.81322       53.82378
O         63.11490       58.86725       53.59192
O         65.07353       59.79560       53.16426
H         63.70237       62.48714       56.77288
H         62.55710       59.93391       56.26364
H         64.79050       61.51058       54.87628
H         63.02867       61.54851       54.53022
N         64.22599       58.05344       56.83906
C         65.14890       56.97232       57.16116
C         65.25512       55.91440       56.05189
O         66.06751       55.01534       56.22206
C         64.67598       56.29672       58.45696
H         63.24474       57.79700       56.68700
H         66.16845       57.38051       57.32934
H         63.66479       55.85346       58.31424
H         65.37351       55.48747       58.76165
H         64.61917       57.03820       59.28179
N         64.45694       55.90169       54.93403
C         64.46158       54.78827       53.97120
C         64.40038       55.19893       52.48957
O         64.36614       54.30991       51.64956
C         63.32044       53.80657       54.32817
C         61.92057       54.35803       54.25138
O         61.70598       55.51284       53.92677
O         60.88310       53.55671       54.55678
H         63.72568       56.61618       54.84225
H         65.39770       54.19812       54.08361
H         63.48563       53.44906       55.36787
H         63.38290       52.92259       53.65731
N         64.41208       56.49901       52.08205
C         64.39807       56.92377       50.68303
C         63.10777       56.67207       49.90353
O         63.09035       57.01239       48.72876
H         64.52839       57.22658       52.78892
H         65.24346       56.43277       50.15385
H         64.57528       58.02111       50.64913
N         62.00048       56.08996       50.44994
C         60.78324       55.79010       49.68210
C         59.94684       57.01318       49.25868
O         58.90729       56.81080       48.64487
C         59.89199       54.79391       50.45774
C         59.31382       55.30966       51.74935
N         58.44439       54.53887       52.43439
O         59.61086       56.41298       52.18075
H         62.04889       55.77590       51.42586
H         61.08556       55.24643       48.75884
H         60.47450       53.87237       50.67608
H         59.04379       54.50322       49.79991
H         58.17959       53.60510       52.09005
H         58.01959       54.88612       53.29942
N         60.32534       58.29643       49.51705
C         59.56958       59.46598       49.08330
C         58.33171       59.81131       49.90516
O         57.74578       60.84093       49.60310
H         61.23716       58.47131       49.95234
H         59.31141       59.37089       48.00550
H         60.23726       60.34946       49.18112
N         57.88164       59.05912       50.95554
C         56.75542       59.46551       51.80602
C         57.15269       59.56008       53.27072
O         58.21162       59.09583       53.66672
C         55.57189       58.46806       51.69150
C         54.85839       58.57896       50.34797
O         56.01321       57.14613       51.87636
H         58.35599       58.17915       51.17669
H         56.39713       60.47888       51.51983
H         54.78717       58.70874       52.44761
H         56.14794       57.01510       52.85103
H         55.54595       58.35538       49.50801
H         54.00563       57.86600       50.32316
H         54.44798       59.60551       50.22743
N         56.28411       60.15226       54.13994
C         56.43625       60.14541       55.58815
C         55.94480       58.79850       56.08964
O         54.82378       58.42728       55.77185
C         55.60169       61.30497       56.22777
C         56.12652       62.67998       55.73098
C         55.65175       61.23388       57.77084
C         55.25256       63.86337       56.15857
H         55.41897       60.56222       53.75468
H         57.49785       60.32024       55.87288
H         54.54047       61.19176       55.91142
H         56.14555       62.69166       54.62114
H         57.16672       62.84077       56.09166
H         55.03081       62.02241       58.23861
H         55.23353       60.27433       58.13188
H         56.69629       61.33099       58.13744
H         55.22217       63.98402       57.25935
H         55.66891       64.80125       55.73418
H         54.21872       63.73201       55.77391
N         56.70527       58.05132       56.93774
C         56.23464       56.80644       57.54253
C         55.84032       57.07931       58.97709
O         56.00627       58.19446       59.43365
C         57.31967       55.71898       57.47717
C         57.71668       55.39538       56.07144
O         58.22919       56.24762       55.36260
O         57.53474       54.14782       55.59857
H         57.60403       58.43134       57.25391
H         55.31977       56.44494       57.02406
H         56.93651       54.79150       57.95404
H         58.22226       56.04532       58.03466
N         55.23346       56.12035       59.73352
C         54.72517       56.42715       61.06403
C         55.83655       56.76421       62.05458
O         55.73935       57.83589       62.64243
C         53.78319       55.32485       61.59494
C         53.16957       55.75341       62.90761
C         52.34114       56.89033       62.96818
C         53.43651       55.03650       64.08508
C         51.79997       57.30564       64.18586
C         52.89142       55.45624       65.30223
C         52.07596       56.59046       65.35281
H         55.04978       55.19509       59.32172
H         54.07781       57.32468       60.95383
H         54.31334       54.36682       61.71582
H         52.96673       55.14638       60.86233
H         52.11553       57.46051       62.07579
H         54.07473       54.16188       64.06382
H         51.16933       58.18459       64.22310
H         53.10557       54.90451       66.20766
H         51.65815       56.91642       66.29585
N         56.91239       55.95459       62.32425
C         57.96633       56.29761       63.27718
C         58.54747       57.67719       63.03198
O         58.85871       58.38696       63.97543
C         59.04792       55.23878       63.02064
C         58.22344       54.04770       62.60169
C         57.20813       54.69321       61.66603
H         57.56204       56.20928       64.31057
H         59.65648       55.51817       62.12910
H         59.73592       55.07076       63.87726
H         58.79498       53.20588       62.15632
H         57.68185       53.67752       63.50303
H         57.64343       54.90930       60.66446
H         56.36006       54.00044       61.57144
N         58.69324       58.11087       61.75132
C         59.23626       59.40797       61.37797
C         58.35440       60.52113       61.91409
O         58.84410       61.38792       62.62484
C         59.33175       59.52765       59.84263
C         60.15300       58.39081       59.19836
C         60.25733       58.55317       57.71583
O         60.84686       57.60070       56.98194
O         59.83870       59.55479       57.16022
H         58.37807       57.47750       61.00706
H         60.26856       59.50309       61.78306
H         59.80135       60.50654       59.59712
H         58.31458       59.50937       59.39638
H         59.67872       57.40794       59.37232
H         61.17618       58.35745       59.62925
N         57.02677       60.54503       61.61444
C         56.12443       61.57108       62.08163
H         55.09230       61.34456       61.73400
H         56.12353       61.60250       63.19099
H         56.42695       62.55661       61.67118
H         56.63054       59.79405       61.04083
Ca        61.41008       58.28493       54.92689
O         60.70206       59.69940       52.24730
H         61.31232       60.40745       51.92217
H         61.20183       58.85578       52.11655
O         60.23172       61.12739       54.80848
H         60.23033       61.61492       55.66951
H         60.64059       61.76033       54.16791

Ca 1.0



