%chk=holoCaM.loop3.water2.frame327.chk
%nprocshared=20
%mem=10GB
%nosave
#b3lyp/svp scf=(tight,noincore,xqc) Test 
#IOP(5/87=12) Density=Current Pop=(MK,readradii) iop(6/33=2) iop(6/42=6)

holoCaM.loop3.water2.frame327 

   0  1 
C         99.04035       32.99525      101.56923
C         99.85578       32.55240      102.73831
O         99.30521       32.39118      103.81961
H         97.97895       33.13052      101.86888
H         99.43725       33.95527      101.18309
H         99.09112       32.22061      100.77541
N        101.18609       32.29875      102.58976
C        101.97540       31.78229      103.69094
C        102.08290       32.83348      104.79851
O        102.65548       33.89246      104.58430
C        103.36021       31.30204      103.20901
C        104.00285       30.38687      104.20881
O        105.11120       29.94343      103.99696
O        103.33683       30.01062      105.31138
H        101.61676       32.40812      101.65840
H        101.43293       30.87717      104.04768
H        104.01248       32.17550      102.98904
H        103.25185       30.70334      102.27910
N        101.49348       32.59866      105.99924
C        101.42649       33.53385      107.12242
C        102.79914       33.90152      107.67046
O        103.07831       35.08092      107.83376
C        100.58485       32.87451      108.24055
C        100.33429       33.78429      109.45474
C         99.43122       33.11585      110.50738
C        100.07594       31.88527      111.17176
N         99.18284       31.30630      112.17448
H        101.00603       31.70008      106.09888
H        100.89502       34.45677      106.79764
H        101.09975       31.94589      108.56000
H         99.59542       32.59591      107.81384
H         99.82224       34.70482      109.09868
H        101.29396       34.08102      109.93014
H         98.46711       32.82686      110.03420
H         99.21540       33.86532      111.29955
H        101.02907       32.18918      111.65923
H        100.30217       31.10341      110.41731
H         99.65430       30.48543      112.61890
H         98.96127       32.01159      112.91397
H         98.29898       30.98076      111.71919
N        103.68602       32.92548      108.00628
C        104.97200       33.16247      108.67282
C        106.16976       32.98521      107.74388
O        107.28849       33.14626      108.21459
C        105.11054       32.30831      109.97279
C        105.04834       30.81175      109.78558
O        104.68124       30.32437      108.59963
O        105.22475       30.05706      110.72704
H        103.41299       31.97040      107.75405
H        105.03339       34.22369      109.00149
H        104.30723       32.59451      110.68508
H        106.08551       32.55424      110.44520
N        106.02949       32.76999      106.40365
C        107.15955       32.82205      105.48946
C        108.11300       31.64670      105.54564
O        109.09895       31.71269      104.82357
H        105.08974       32.70464      105.98846
H        107.72483       33.76376      105.67845
H        106.78041       32.87577      104.44631
N        107.91943       30.53618      106.32462
C        108.89143       29.43751      106.31121
C        108.97737       28.71142      104.95507
O        109.84697       27.86335      104.81110
C        108.67089       28.41901      107.46160
C        107.46481       27.52358      107.34266
N        107.34749       26.43757      108.14058
O        106.60788       27.74792      106.51075
H        107.10354       30.48591      106.95153
H        109.88467       29.89417      106.51764
H        108.64493       28.93711      108.44550
H        109.55765       27.75079      107.46093
H        108.07594       26.21215      108.83310
H        106.54450       25.79918      108.04175
N        108.10469       28.96464      103.93397
C        108.16084       28.33982      102.61864
C        107.02342       27.36053      102.35288
O        106.95177       26.86144      101.24082
H        107.36170       29.64897      104.07698
H        109.10984       27.78017      102.47938
H        108.14118       29.14969      101.85647
N        106.15742       26.97025      103.33509
C        105.15507       25.91403      103.17681
C        103.79390       26.35378      103.67784
O        103.72514       27.14993      104.60039
C        105.59903       24.69145      104.00423
C        106.89651       24.13598      103.47478
C        108.07013       24.19432      104.24389
C        106.94180       23.56439      102.19212
C        109.27289       23.69992      103.72906
C        108.14218       23.06727      101.68236
C        109.31415       23.13731      102.44802
O        110.48175       22.66996      101.96292
H        106.27470       27.36225      104.26963
H        105.05895       25.60622      102.11391
H        104.83072       23.88750      103.96950
H        105.71127       25.00438      105.06709
H        108.05881       24.63374      105.23394
H        106.04630       23.50383      101.58607
H        110.17480       23.75841      104.32488
H        108.15924       22.63176      100.69127
H        110.55106       22.28099      101.07917
N        102.65777       25.81242      103.14145
C        101.31461       26.13218      103.62112
C        100.59521       24.83610      103.98868
O        100.45036       23.97726      103.13042
C        100.50705       26.90789      102.53868
C        101.32243       28.10704      101.98874
C         99.16947       27.38644      103.14636
C        100.61439       28.86560      100.86363
H        102.74767       25.15256      102.35441
H        101.37814       26.79524      104.51143
H        100.30127       26.22305      101.68590
H        102.27433       27.72919      101.55773
H        101.56968       28.81004      102.81047
H         98.52916       27.88428      102.39329
H         98.58394       26.53367      103.53680
H         99.35625       28.09487      103.98356
H         99.69102       29.36139      101.22332
H        101.28639       29.65802      100.47311
H        100.36338       28.17203      100.03239
N        100.08709       24.64434      105.23975
C         99.32304       23.45427      105.62209
C         97.83859       23.64470      105.33706
O         97.45484       24.69703      104.86138
C         99.56587       23.14254      107.10999
O         99.11890       24.20370      107.90869
H        100.18839       25.40250      105.92622
H         99.67525       22.57752      105.03554
H        100.65556       22.98915      107.27132
H         99.02679       22.21131      107.39185
H         99.24177       23.91730      108.85041
N         96.94131       22.64725      105.58544
C         95.50128       22.79105      105.36728
C         94.90468       23.82359      106.30919
O         94.25843       24.75229      105.84462
C         94.79334       21.44794      105.57899
H         97.29859       21.74540      105.93424
H         95.31291       23.08772      104.31049
H         93.70318       21.55915      105.39106
H         95.19303       20.69746      104.86441
H         94.94263       21.07133      106.61276
N         95.09639       23.71789      107.65568
C         94.56178       24.65945      108.63898
C         94.98641       26.07806      108.32189
O         94.14387       26.96225      108.26335
C         95.05830       24.28247      110.04261
H         95.67746       22.93523      107.99547
H         93.45053       24.60482      108.64618
H         96.16869       24.31805      110.09326
H         94.64633       24.98362      110.79969
H         94.72753       23.25429      110.30145
N         96.29249       26.34406      108.06257
C         96.82147       27.66094      107.72635
C         96.07417       28.26535      106.54718
O         95.58662       29.38137      106.66062
C         98.32962       27.50977      107.44563
C         99.07134       28.83478      107.25909
C        100.56037       28.61727      107.17356
O        101.09891       27.38319      107.22491
O        101.30045       29.57801      107.09789
H         96.94439       25.54586      108.08478
H         96.70299       28.32979      108.60809
H         98.48538       26.86091      106.55684
H         98.77601       27.00852      108.33391
H         98.87505       29.48407      108.13916
H         98.71307       29.35196      106.34255
N         95.89897       27.55768      105.40111
C         95.15245       28.06124      104.27026
H         94.11460       28.30965      104.57985
H         95.64935       28.96288      103.85713
H         95.10297       27.28351      103.47720
H         96.27629       26.60990      105.34346
Ca       104.18595       28.85663      107.02531
O        104.39301       27.05856      109.63079
H        104.68767       26.18892      110.00086
H        105.22564       27.58811      109.55395
O        103.59144       25.48184      107.01224
H        103.09303       24.75139      106.56721
H        104.27915       25.01929      107.55279

Ca 1.0



