%chk=holoCaM-CaMKII.loop2.water2.frame150.chk
%nprocshared=20
%mem=10GB
%nosave
#b3lyp/svp scf=(tight,noincore,xqc) Test 
#IOP(5/87=12) Density=Current Pop=(MK,readradii) iop(6/33=2) iop(6/42=6)

holoCaM-CaMKII.loop2.water2.frame150 

   -2  1 
C          8.66370       -3.55471       38.83644
C          8.62344       -2.82466       37.52177
O          7.62059       -2.90390       36.82787
H          9.62101       -3.37612       39.37241
H          7.83675       -3.19465       39.48507
H          8.55087       -4.64561       38.67214
N          9.68111       -2.06393       37.12935
C          9.68522       -1.25035       35.91906
C          9.60141       -2.08250       34.64652
O         10.48395       -2.89512       34.40670
C         10.96972       -0.39810       35.88208
C         10.99894        0.48933       34.67677
O         11.90952        0.40458       33.86852
O         10.00150        1.36502       34.47320
H         10.50080       -2.01686       37.75531
H          8.81983       -0.55148       35.97137
H         11.86518       -1.05902       35.88294
H         11.01138        0.24199       36.78819
N          8.58735       -1.87080       33.75494
C          8.50195       -2.52164       32.44980
C          8.43683       -1.52097       31.28386
O          8.41199       -1.97738       30.14923
C          7.26024       -3.41848       32.42672
H          7.84140       -1.21072       34.01366
H          9.39099       -3.16871       32.28499
H          6.33936       -2.81190       32.56696
H          7.18785       -3.96328       31.46094
H          7.31994       -4.16938       33.24341
N          8.36275       -0.16541       31.46950
C          8.19091        0.80676       30.37813
C          9.24521        1.91842       30.35906
O          9.20147        2.72605       29.44023
C          6.77311        1.42794       30.44605
C          6.38333        1.81328       31.84561
O          7.18636        2.56967       32.61499
O          5.38336        1.32018       32.33922
H          8.35817        0.20377       32.42848
H          8.27520        0.30548       29.38898
H          6.03948        0.66568       30.09978
H          6.69134        2.29451       29.75582
N         10.22662        2.02978       31.29667
C         11.27554        3.04316       31.24621
C         10.83517        4.49044       31.44516
O         11.70749        5.34648       31.39446
H         10.28717        1.32849       32.04071
H         11.80259        2.95817       30.27105
H         12.01399        2.82280       32.04733
N          9.54084        4.86429       31.67386
C          9.13133        6.26401       31.83866
C          9.61403        6.92245       33.14336
O          9.27889        8.07991       33.35658
C          7.59622        6.41431       31.66851
C          6.72615        5.73998       32.69759
N          5.38258        5.86223       32.61267
O          7.21402        5.08687       33.60385
H          8.81161        4.14380       31.67120
H          9.55686        6.84628       30.99081
H          7.31319        6.01428       30.67022
H          7.34663        7.49782       31.67644
H          4.94944        6.41014       31.85533
H          4.77200        5.41411       33.30688
N         10.42022        6.28414       34.04435
C         10.92216        6.90799       35.26395
C          9.89429        7.06858       36.37470
O         10.26953        7.57267       37.42350
H         10.76512        5.34003       33.84094
H         11.38056        7.88990       35.01327
H         11.72551        6.26314       35.68113
N          8.60019        6.66153       36.23949
C          7.58257        6.79244       37.27790
C          6.94415        5.44886       37.58805
O          6.50185        4.77124       36.67383
C          6.47796        7.77442       36.82317
C          7.01822        9.19609       36.67715
O          5.91263        7.37202       35.59991
H          8.30097        6.25690       35.34932
H          8.00991        7.20876       38.21718
H          5.69220        7.82313       37.61664
H          5.11901        6.81367       35.80975
H          7.44160        9.54381       37.64430
H          7.80734        9.24143       35.89796
H          6.19214        9.88083       36.39138
N          6.77631        5.04674       38.87918
C          5.97995        3.87691       39.25654
C          4.54668        4.09184       38.78031
O          3.95624        5.10378       39.13744
C          6.01003        3.66918       40.80905
C          7.45574        3.35206       41.28453
C          5.04333        2.54154       41.24105
C          7.61116        3.31994       42.80787
H          7.15898        5.64740       39.62478
H          6.39900        2.96055       38.78671
H          5.66893        4.61343       41.29064
H          8.15518        4.13196       40.92171
H          7.78707        2.37918       40.85929
H          5.01671        2.42860       42.34258
H          4.00050        2.77410       40.94359
H          5.33672        1.57291       40.78329
H          7.31392        4.29817       43.24259
H          7.01036        2.51316       43.27156
H          8.67479        3.13020       43.06443
N          3.90777        3.15091       38.02280
C          2.50385        3.26360       37.62452
C          1.66986        2.29007       38.43125
O          2.23785        1.52441       39.19559
C          2.32197        2.96122       36.12249
C          3.11701        3.86275       35.23168
O          2.55148        4.59284       34.43366
O          4.45886        3.82651       35.26492
H          4.40905        2.27827       37.79333
H          2.11947        4.28415       37.84362
H          1.24874        3.07756       35.86327
H          2.62320        1.91109       35.90863
N          0.30891        2.28130       38.35670
C         -0.50417        1.34701       39.12657
C         -0.34405       -0.08673       38.61546
O         -0.09433       -0.94510       39.44717
C         -1.97453        1.80346       39.23506
C         -2.77291        0.92357       40.17738
C         -3.92994        0.26742       39.72482
C         -2.37636        0.75545       41.52096
C         -4.67013       -0.54146       40.59400
C         -3.11382       -0.06129       42.38166
C         -4.26049       -0.70855       41.91938
H         -0.16183        2.99069       37.77147
H         -0.13121        1.38458       40.17331
H         -2.45557        1.84577       38.24092
H         -1.98748        2.83625       39.64707
H         -4.26284        0.38419       38.70148
H         -1.49656        1.24958       41.91106
H         -5.56257       -1.03998       40.23978
H         -2.79608       -0.19013       43.40884
H         -4.83235       -1.33730       42.58952
N         -0.39955       -0.43374       37.28078
C         -0.14007       -1.78436       36.76542
C          1.19881       -2.41417       37.16111
O          1.43255       -3.55894       36.79554
C         -0.14584       -1.59135       35.24065
C         -1.13976       -0.47247       35.06690
C         -0.74175        0.46686       36.19985
H         -0.97727       -2.43127       37.10728
H          0.83903       -1.17577       34.91753
H         -0.34654       -2.51221       34.65254
H         -1.15643        0.00131       34.06202
H         -2.15030       -0.88761       35.28605
H          0.15207        1.06514       35.93710
H         -1.60984        1.11791       36.40656
N          2.12397       -1.73286       37.89114
C          3.41505       -2.24465       38.32137
C          3.39320       -2.41041       39.82951
O          3.66924       -3.50425       40.30036
C          4.50754       -1.26901       37.83168
C          4.54427       -1.31214       36.29800
C          5.41740       -0.29683       35.64005
O          5.49713       -0.32633       34.42518
O          6.06301        0.67855       36.30855
H          1.93665       -0.76209       38.15169
H          3.62493       -3.24940       37.88759
H          5.50584       -1.55946       38.22498
H          4.27540       -0.24123       38.18897
H          3.52808       -1.13718       35.88454
H          4.88028       -2.32520       35.98628
N          3.00506       -1.39063       40.64564
C          2.86411       -1.51265       42.08104
H          1.79971       -1.34284       42.35404
H          3.16280       -2.51390       42.45358
H          3.48663       -0.74154       42.57887
H          2.74919       -0.48944       40.23743
Ca         6.97303        2.10811       34.81642
O          9.47425        3.84281       35.63461
H         10.45597        3.78618       35.75174
H          9.33136        3.76136       34.65818
O          8.94563        1.97246       37.70796
H          8.10622        1.49076       37.91157
H          9.60264        1.60942       38.35269

Ca 1.0



