%chk=holoCaM-CaMKII.loop3.water1.frame314.chk
%nprocshared=20
%mem=10GB
%nosave
#b3lyp/svp scf=(tight,noincore,xqc) Test 
#IOP(5/87=12) Density=Current Pop=(MK,readradii) iop(6/33=2) iop(6/42=6)

holoCaM-CaMKII.loop3.water1.frame314 

   0  1 
C         48.95603       33.16994       44.48469
C         47.56147       33.69689       44.36238
O         46.62114       32.97511       44.65248
H         49.68669       34.00681       44.47171
H         49.06996       32.62636       45.44490
H         49.17171       32.49098       43.63428
N         47.35538       34.94556       43.87173
C         46.04872       35.55610       43.71871
C         45.58708       35.37493       42.27906
O         45.42365       36.34168       41.55088
C         46.17569       37.01902       44.19267
C         44.89123       37.76651       44.13437
O         44.79605       38.78417       43.46932
O         43.84513       37.33156       44.84278
H         48.17186       35.48324       43.54300
H         45.29242       35.04766       44.36240
H         46.93262       37.54752       43.57491
H         46.51915       37.02310       45.25109
N         45.36677       34.11038       41.81037
C         44.89632       33.79118       40.46096
C         43.42599       34.14680       40.22994
O         42.96541       34.01399       39.10411
C         45.16793       32.30023       40.15457
C         44.33497       31.30538       40.98901
C         44.88502       29.88146       40.80900
C         44.06002       28.79685       41.52236
N         43.93879       29.03584       42.95925
H         45.58407       33.33354       42.44495
H         45.52157       34.37178       39.74667
H         46.25022       32.13082       40.34966
H         44.98573       32.09340       39.07682
H         43.27033       31.35997       40.67408
H         44.39303       31.55841       42.06537
H         45.92745       29.85560       41.19916
H         44.91350       29.62728       39.72773
H         44.56966       27.82105       41.36017
H         43.04538       28.73648       41.07286
H         43.47686       28.21240       43.40807
H         44.88421       29.16979       43.38605
H         43.33425       29.87126       43.12700
N         42.64484       34.62888       41.24110
C         41.26906       35.09269       41.07967
C         41.18848       36.61148       41.11922
O         40.12063       37.14593       40.84984
C         40.32955       34.46007       42.13768
C         40.68904       34.67875       43.60590
O         39.93932       34.23703       44.46063
O         41.82040       35.31055       43.99848
H         43.07148       34.73821       42.16238
H         40.89412       34.80771       40.06877
H         40.28473       33.36483       41.95897
H         39.30589       34.86408       41.96488
N         42.28344       37.37808       41.38559
C         42.28325       38.82126       41.29784
C         41.46864       39.51348       42.36432
O         41.31722       40.72061       42.24058
H         43.17777       36.93480       41.59415
H         41.91742       39.10530       40.28744
H         43.32461       39.19806       41.38519
N         40.93719       38.86629       43.44853
C         40.15974       39.59157       44.45318
C         41.03498       40.28278       45.49620
O         40.49969       41.04903       46.28396
C         39.03066       38.71864       45.04831
C         39.45181       37.61478       45.97731
N         38.51502       36.80019       46.51557
O         40.62303       37.46242       46.26686
H         41.10864       37.85929       43.58186
H         39.61525       40.40165       43.92137
H         38.45911       38.27113       44.20606
H         38.34592       39.37344       45.62639
H         37.51872       36.92419       46.28887
H         38.77419       36.04481       47.16207
N         42.38283       40.07598       45.55497
C         43.28193       40.81511       46.42511
C         43.85755       40.00513       47.56813
O         44.64447       40.58050       48.30776
H         42.81039       39.40357       44.91792
H         42.76810       41.68967       46.87374
H         44.11360       41.21131       45.79949
N         43.51073       38.70524       47.82118
C         44.00942       37.99288       48.99352
C         44.22078       36.46880       48.72936
O         43.00986       35.82637       48.44105
C         43.16574       38.32758       50.25623
C         41.70922       37.92266       50.21615
C         41.28427       36.75895       50.88035
C         40.75281       38.73133       49.57588
C         39.93234       36.40253       50.89400
C         39.39731       38.37929       49.60244
C         38.98384       37.21104       50.26035
O         37.68242       36.85857       50.29634
H         42.82808       38.23310       47.21699
H         45.03428       38.36876       49.21464
H         43.21178       39.41779       50.47390
H         43.64512       37.84884       51.13609
H         42.00133       36.12293       51.38398
H         41.05018       39.64608       49.07852
H         39.62197       35.49777       51.40162
H         38.66800       39.01787       49.11908
H         36.99008       37.39448       49.88387
N         44.79886       35.83519       49.92936
C         45.35028       34.47909       49.74063
C         44.74526       33.57454       50.79475
O         44.79708       33.89988       51.97294
C         46.91188       34.45589       49.81738
C         47.50540       35.24130       48.61977
C         47.43792       32.99999       49.83583
C         49.03199       35.34423       48.64616
H         45.45684       36.44937       50.46466
H         45.08010       34.07744       48.74494
H         47.23477       34.93515       50.76866
H         47.10803       36.27763       48.63314
H         47.19601       34.76410       47.66274
H         48.54012       32.95958       49.92387
H         47.05958       32.45587       50.72604
H         47.12405       32.45401       48.92264
H         49.37318       35.96834       47.79435
H         49.36822       35.81516       49.59382
H         49.51210       34.35103       48.53560
N         44.22543       32.36966       50.42642
C         43.68076       31.39530       51.35982
C         44.59239       30.18567       51.45614
O         45.60491       30.13527       50.77980
C         42.27650       30.97678       50.88320
O         42.34089       30.30708       49.64910
H         44.26513       32.10153       49.43455
H         43.60167       31.83200       52.37780
H         41.61605       31.87105       50.81650
H         41.80324       30.29083       51.61441
H         42.08824       30.95261       48.93949
N         44.27733       29.15727       52.28810
C         45.03443       27.91061       52.35895
C         45.02288       27.21662       51.00590
O         46.06931       26.79296       50.53570
C         44.41226       26.99821       53.42207
H         43.43390       29.25281       52.87335
H         46.08377       28.11130       52.67378
H         44.98996       26.05417       53.51313
H         44.43108       27.51313       54.40747
H         43.35761       26.75708       53.16963
N         43.85810       27.12864       50.30278
C         43.72990       26.53153       48.97650
C         44.69815       27.14525       47.98070
O         45.44660       26.40650       47.35610
C         42.28991       26.71086       48.47513
H         43.01463       27.54326       50.72886
H         43.93468       25.44012       49.04254
H         41.58411       26.21389       49.17448
H         42.02331       27.78885       48.41874
H         42.16532       26.26004       47.46840
N         44.74661       28.49218       47.79019
C         45.66119       29.13879       46.85176
C         47.09969       28.76690       47.17346
O         47.76508       28.22050       46.30440
C         45.41252       30.66403       46.83063
C         44.04587       30.94923       46.16980
C         43.71074       32.40288       46.06071
O         43.52256       33.13288       47.17004
O         43.54174       32.91458       44.96473
H         44.11766       29.07896       48.35542
H         45.45967       28.76676       45.82247
H         46.20188       31.15307       46.22818
H         45.46540       31.07561       47.85774
H         43.22523       30.45123       46.72424
H         44.07374       30.53157       45.14901
N         47.62468       28.96648       48.41149
C         48.93682       28.49603       48.81009
H         49.56559       29.35358       49.12228
H         48.82420       27.80018       49.66993
H         49.45543       27.94399       47.99795
H         47.05693       29.43160       49.12310
Ca        42.47096       35.60276       46.19299
O         40.57633       34.57593       48.11492
H         40.60358       34.07455       48.96598
H         40.59907       35.52689       48.38935

Ca 1.0



