%chk=holoCaM-CaMKII.loop4.water2.frame185.chk
%nprocshared=20
%mem=10GB
%nosave
#b3lyp/svp scf=(tight,noincore,xqc) Test 
#IOP(5/87=12) Density=Current Pop=(MK,readradii) iop(6/33=2) iop(6/42=6)

holoCaM-CaMKII.loop4.water2.frame185 

   -3  1 
C         -7.03367       45.96827       13.37341
C         -7.52955       45.40361       14.67256
O         -7.15120       44.29591       15.02301
H         -5.92726       46.04655       13.39661
H         -7.34089       45.30379       12.53928
H         -7.45375       46.97985       13.18566
N         -8.39063       46.12049       15.44320
C         -8.92766       45.64352       16.71037
C         -9.76338       44.38819       16.49467
O        -10.64305       44.39627       15.64467
C         -9.80549       46.74410       17.33733
C        -10.27235       46.42507       18.72545
O         -9.87111       45.43993       19.32275
O        -11.13530       47.25991       19.32393
H         -8.67243       47.05697       15.11313
H         -8.08016       45.44638       17.40712
H        -10.69103       46.91228       16.68804
H         -9.23526       47.69524       17.40394
N         -9.56603       43.28883       17.27291
C        -10.30465       42.03717       17.12660
C        -11.27061       41.86627       18.29619
O        -12.44104       41.59472       18.06809
C         -9.30988       40.83894       17.03598
C         -8.16726       41.06423       16.00843
C        -10.05512       39.52239       16.74168
C         -8.62048       41.29933       14.56597
H         -8.86232       43.34947       18.02108
H        -10.90774       42.04657       16.19163
H         -8.80770       40.72344       18.02267
H         -7.48815       40.18350       16.02633
H         -7.56233       41.93965       16.32589
H        -10.79554       39.30044       17.53783
H        -10.59673       39.57633       15.77413
H         -9.33888       38.67408       16.70152
H         -9.25401       42.20596       14.49283
H         -7.72557       41.45639       13.92711
H         -9.17572       40.42552       14.17076
N        -10.84303       42.03619       19.57808
C        -11.68194       41.86658       20.76470
C        -12.90254       42.76836       20.73612
O        -14.00005       42.31254       21.02498
C        -10.89179       42.22021       22.05469
C         -9.70178       41.33412       22.31355
O         -8.75025       41.32095       21.55006
O         -9.66181       40.57921       23.42722
H         -9.86592       42.32289       19.71299
H        -12.01574       40.80917       20.84695
H        -11.58085       42.12112       22.92359
H        -10.54881       43.27705       22.02010
N        -12.74149       44.09302       20.50264
C        -13.74686       45.09580       20.77740
C        -13.45333       45.65884       22.14571
O        -14.33289       45.66499       22.99518
H        -11.79622       44.42269       20.28749
H        -14.78024       44.68580       20.73150
H        -13.66691       45.90492       20.01884
N        -12.19853       46.11533       22.42840
C        -11.79273       46.68281       23.70674
C        -11.37337       48.14329       23.57253
O        -11.24642       48.79826       24.59724
C        -10.70855       45.81191       24.40722
C         -9.44842       45.43065       23.64010
O         -9.27434       45.70992       22.33163
O         -8.59663       44.77043       24.21321
H        -11.49577       46.05621       21.68551
H        -12.67101       46.70105       24.38995
H        -11.18539       44.85084       24.70014
H        -10.41010       46.32837       25.34577
N        -11.14779       48.72936       22.36023
C        -10.82060       50.13372       22.18092
C         -9.34318       50.36107       21.94112
O         -8.96660       51.49843       21.69588
H        -11.17236       48.16659       21.50837
H        -11.10287       50.72758       23.07583
H        -11.42078       50.51787       21.32794
N         -8.43810       49.35348       22.08741
C         -6.99380       49.53665       22.05928
C         -6.37215       48.55433       21.09152
O         -6.73914       47.39219       21.13182
C         -6.48561       49.30570       23.49419
C         -4.96873       49.49022       23.63492
C         -4.55319       49.42109       25.08280
N         -4.77184       48.30809       25.82194
O         -4.01365       50.38922       25.59730
H         -8.77226       48.41147       22.33897
H         -6.71164       50.57570       21.77784
H         -6.77894       48.29113       23.84171
H         -6.99045       50.05234       24.14787
H         -4.68596       50.48531       23.22568
H         -4.43071       48.70885       23.05711
H         -5.22487       47.47899       25.41393
H         -4.48992       48.27655       26.81284
N         -5.37760       48.92807       20.23702
C         -4.73937       47.99444       19.31304
C         -3.32758       47.69896       19.79937
O         -2.49261       48.59206       19.84125
C         -4.78318       48.55872       17.86728
C         -4.04933       47.65135       16.86694
C         -6.23971       48.73193       17.40726
H         -5.02646       49.89784       20.27337
H         -5.29285       47.02914       19.30065
H         -4.28487       49.55357       17.85429
H         -2.97899       47.55206       17.13856
H         -4.51222       46.64349       16.83474
H         -4.09133       48.09372       15.84858
H         -6.75658       47.74865       17.39548
H         -6.79306       49.41559       18.08448
H         -6.27482       49.16223       16.38401
N         -3.01715       46.43596       20.21318
C         -1.70924       46.01394       20.71448
C         -0.66429       46.05164       19.60138
O         -1.00846       46.32264       18.46463
C         -1.86989       44.57279       21.28708
C         -0.65985       43.97589       21.95782
N         -0.09706       44.56973       23.03492
O         -0.19618       42.92691       21.53735
H         -3.77218       45.73613       20.20076
H         -1.41119       46.69784       21.53822
H         -2.19969       43.89850       20.46619
H         -2.67320       44.58655       22.05209
H         -0.47959       45.44720       23.41418
H          0.72614       44.14815       23.49046
N          0.64221       45.77095       19.86045
C          1.66723       45.63128       18.82706
C          1.31144       44.48700       17.88754
O          1.25471       44.69633       16.68394
C          3.03201       45.36549       19.50688
C          4.13999       45.02152       18.53817
C          4.52277       45.90960       17.51917
C          4.80386       43.78764       18.65720
C          5.54947       45.56343       16.63276
C          5.83052       43.44710       17.77542
C          6.20678       44.33382       16.75810
O          7.19601       44.01514       15.89927
H          0.91930       45.61981       20.83925
H          1.75006       46.57438       18.24190
H          2.91299       44.52648       20.22784
H          3.32123       46.26466       20.09314
H          4.02683       46.86516       17.40726
H          4.52925       43.08587       19.43538
H          5.83541       46.25177       15.84760
H          6.33143       42.49338       17.88523
H          7.67472       43.17551       15.95656
N          1.05702       43.24690       18.38722
C          0.73123       42.07980       17.57054
C         -0.48169       42.34001       16.69729
O         -0.39311       42.12931       15.49550
C          0.46095       40.84413       18.45734
C          1.70035       40.40249       19.25505
C          1.39552       39.19121       20.08839
O          1.51805       39.24672       21.42848
O          1.04389       38.14950       19.55758
H          1.08856       43.14032       19.40878
H          1.59406       41.83767       16.90878
H          0.15916       39.99919       17.79820
H         -0.37887       41.05957       19.15493
H          2.04076       41.21475       19.92939
H          2.53055       40.16027       18.55694
N         -1.64054       42.82215       17.23141
C         -2.83776       43.09791       16.43701
C         -2.50328       44.01001       15.26334
O         -2.80243       43.64537       14.13448
C         -3.97964       43.67949       17.31696
C         -4.47966       42.64454       18.35008
C         -5.70737       43.08880       19.11234
O         -6.73902       42.44672       19.01040
O         -5.67605       44.14714       19.94751
H         -1.65295       43.02798       18.24067
H         -3.21633       42.14382       16.00523
H         -4.83337       43.92653       16.64806
H         -3.64852       44.61120       17.82477
H         -3.67994       42.39729       19.07737
H         -4.74052       41.71383       17.79894
N         -1.81345       45.16701       15.44816
C         -1.37684       46.02974       14.36776
H         -0.26585       46.07101       14.36092
H         -1.71336       45.67042       13.37275
H         -1.76977       47.05432       14.52808
H         -1.53743       45.42687       16.39738
Ca        -7.54226       44.84499       21.08759
O         -5.79556       42.38041       22.89862
H         -4.80661       42.41326       22.85901
H         -6.05845       41.88400       22.08361
O         -4.90964       45.93243       22.86080
H         -5.65884       46.07897       23.48960
H         -4.97203       44.97292       22.63015

Ca 1.0



