%chk=holoCaM-CaMKII.loop1.water2.frame306.chk
%nprocshared=20
%mem=10GB
%nosave
#b3lyp/svp scf=(tight,noincore,xqc) Test 
#IOP(5/87=12) Density=Current Pop=(MK,readradii) iop(6/33=2) iop(6/42=6)

holoCaM-CaMKII.loop1.water2.frame306 

   0  1 
C         49.04860       25.36946       58.41845
C         50.05214       25.39400       59.52464
O         51.04101       24.68897       59.43143
H         48.19597       26.04406       58.63742
H         49.53945       25.70261       57.48000
H         48.66742       24.33644       58.28813
N         49.88998       26.21464       60.59380
C         50.89213       26.32174       61.63967
C         50.77559       25.14279       62.60572
O         49.87721       25.12008       63.43589
C         50.72628       27.68300       62.31938
C         51.78909       28.02579       63.29468
O         52.73836       27.29008       63.50341
O         51.69388       29.19878       63.92786
H         49.07888       26.85219       60.60442
H         51.89725       26.33400       61.15510
H         49.73954       27.72906       62.82634
H         50.75810       28.47334       61.53615
N         51.61085       24.07683       62.46550
C         51.49986       22.82943       63.22554
C         52.04895       22.93550       64.63599
O         51.77324       22.03878       65.42132
C         52.21895       21.66224       62.48101
C         51.70008       21.45708       61.04084
C         50.23532       20.97623       60.96586
C         49.52325       21.62875       59.77374
N         48.11763       21.23904       59.69521
H         52.25707       24.12163       61.67645
H         50.42220       22.59562       63.32640
H         52.12769       20.71056       63.04710
H         53.30029       21.91390       62.41887
H         52.33888       20.74101       60.47974
H         51.81719       22.41466       60.50390
H         49.66131       21.28415       61.85727
H         50.20678       19.86525       60.93183
H         50.04081       21.39452       58.81826
H         49.56137       22.72434       59.93963
H         47.64780       21.37010       60.62099
H         47.63956       21.85282       58.99571
H         48.04034       20.24331       59.39018
N         52.85745       23.96050       65.02824
C         53.35789       24.09345       66.39589
C         52.93591       25.41399       67.03585
O         53.29062       25.64446       68.18324
C         54.87726       23.81576       66.45021
C         55.76852       24.71747       65.65581
O         55.31783       25.62649       64.98318
O         57.09817       24.50654       65.69069
H         53.14386       24.66197       64.33058
H         52.91436       23.31184       67.04684
H         55.04612       22.78007       66.08146
H         55.21270       23.85917       67.50786
N         52.12933       26.30212       66.38477
C         51.60984       27.52089       66.98237
C         52.71352       28.43990       67.43950
O         52.69919       28.88036       68.57914
H         51.82134       26.10439       65.42555
H         50.93733       27.27125       67.82927
H         50.99978       28.05020       66.21666
N         53.69821       28.77926       66.57178
C         54.80350       29.68583       66.87025
C         54.68457       30.97691       66.06787
O         55.56193       31.82313       66.16566
C         56.15284       28.96010       66.64878
C         56.39138       28.34414       65.29168
O         57.38686       27.65734       65.13763
O         55.49436       28.45376       64.28877
H         53.63256       28.38154       65.62891
H         54.78101       29.98857       67.94055
H         56.19020       28.11841       67.37357
H         56.99136       29.65039       66.88517
N         53.57637       31.22606       65.31557
C         53.32779       32.44390       64.57360
C         53.89149       32.42709       63.17240
O         53.61746       33.37039       62.44500
H         52.80197       30.56409       65.34739
H         53.63262       33.33464       65.16081
H         52.22759       32.51098       64.42168
N         54.64642       31.39649       62.69793
C         55.06923       31.30042       61.30509
C         54.66362       29.97553       60.68173
O         54.13113       29.10146       61.34330
C         56.59749       31.54759       61.16402
C         56.89154       33.02221       60.94439
O         57.29258       31.14185       62.30952
H         54.92422       30.63617       63.33137
H         54.53575       32.04800       60.68038
H         57.00199       31.04669       60.25095
H         57.50205       30.19611       62.17963
H         56.57262       33.61416       61.82523
H         57.98122       33.15722       60.77492
H         56.35497       33.37557       60.03711
N         54.85141       29.81970       59.34377
C         54.57699       28.62562       58.55326
C         55.85279       28.30281       57.79173
O         56.36443       29.16495       57.08917
C         53.39787       28.93107       57.59424
C         52.07235       28.99280       58.39848
C         53.27220       27.89641       56.45207
C         51.00969       29.80252       57.66450
H         55.21009       30.63650       58.82472
H         54.28797       27.75861       59.18827
H         53.61091       29.92159       57.13510
H         52.21324       29.49727       59.37717
H         51.71432       27.95883       58.61517
H         52.45403       28.16627       55.75582
H         54.19790       27.86799       55.84097
H         53.08306       26.87715       56.85238
H         50.82202       29.41454       56.64550
H         50.05889       29.78550       58.23578
H         51.35940       30.85572       57.59273
N         56.40296       27.06215       57.86359
C         57.65993       26.69427       57.21900
C         57.40162       25.96525       55.90668
O         56.25130       25.73634       55.57337
C         58.48691       25.79745       58.18406
C         58.69227       26.45745       59.54149
O         57.81599       24.58965       58.38617
H         55.90653       26.34077       58.39678
H         58.24557       27.60937       56.98394
H         59.47031       25.58820       57.71585
H         58.28489       24.06022       59.08110
H         59.37820       25.83302       60.15381
H         59.11334       27.47350       59.43106
H         57.71543       26.50028       60.06739
N         58.43959       25.56412       55.11131
C         58.27445       24.69589       53.93927
C         57.76414       23.33897       54.38830
O         56.84735       22.80176       53.78399
C         59.60211       24.47824       53.16517
C         60.14574       25.76124       52.53980
O         60.58723       23.91753       53.99773
H         59.39308       25.83942       55.38681
H         57.55577       25.14759       53.21760
H         59.36430       23.78826       52.31691
H         60.95832       23.12465       53.52938
H         60.46994       26.47862       53.32105
H         61.02131       25.51232       51.90155
H         59.37292       26.23629       51.89930
N         58.31554       22.75178       55.48608
C         57.87097       21.49155       56.06662
C         56.37189       21.50528       56.34930
O         55.68289       20.58790       55.92573
C         58.69427       21.19260       57.35852
C         59.94388       20.34440       57.05504
C         61.04270       20.98477       56.18378
C         61.85545       19.85252       55.52652
N         62.98893       20.34005       54.74427
H         59.06691       23.26643       55.97097
H         58.03146       20.65756       55.34803
H         58.08303       20.54484       58.02264
H         58.92517       22.11090       57.94170
H         59.55054       19.44040       56.54324
H         60.41464       19.99665       58.00176
H         61.67379       21.65339       56.81319
H         60.61349       21.58094       55.35876
H         61.16587       19.30208       54.84437
H         62.22383       19.14270       56.29790
H         63.69913       20.77339       55.37655
H         63.42700       19.52152       54.26029
H         62.67640       21.02722       54.02110
N         55.80113       22.51215       57.05426
C         54.38188       22.59647       57.37760
C         53.55591       22.80196       56.11249
O         52.43265       22.32326       56.04924
C         54.12827       23.72779       58.41440
C         54.89403       23.44877       59.73520
C         54.80913       24.49643       60.82021
O         54.52448       24.15878       61.95549
O         55.18784       25.76804       60.61738
H         56.40677       23.26780       57.34981
H         54.07016       21.64418       57.86164
H         53.04835       23.76786       58.62649
H         54.43584       24.69977       57.97796
H         55.96802       23.33923       59.52177
H         54.53730       22.48185       60.15159
N         54.07271       23.47683       55.04825
C         53.37285       23.66794       53.79796
H         52.44700       24.25790       53.95703
H         54.02725       24.22183       53.08752
H         53.12914       22.68345       53.34753
H         55.01792       23.85682       55.11370
Ca        55.33291       27.07370       62.47506
O         57.53734       25.21169       62.48322
H         58.51073       25.38230       62.45726
H         57.40545       24.68172       63.30319
O         57.93264       27.90269       62.02183
H         57.86679       28.24167       62.94200
H         58.80444       28.24099       61.70774

Ca 1.0



