%chk=holoCaM.loop4.water3.frame7.chk
%nprocshared=20
%mem=10GB
%nosave
#b3lyp/svp scf=(tight,noincore,xqc) Test 
#IOP(5/87=12) Density=Current Pop=(MK,readradii) iop(6/33=2) iop(6/42=6)

holoCaM.loop4.water3.frame7 

   -3  1 
C         71.58795       53.71330       57.49234
C         70.88851       54.62504       56.53509
O         69.85341       54.23082       56.02714
H         72.50256       54.18587       57.90207
H         70.89812       53.49973       58.34066
H         71.84560       52.75943       56.99120
N         71.34919       55.88932       56.29886
C         70.51847       56.89859       55.66140
C         71.30922       57.88872       54.79163
O         72.31356       58.41855       55.24225
C         69.80711       57.64358       56.80446
C         68.75386       58.57643       56.32749
O         68.35031       58.50043       55.05655
O         68.55885       59.60964       56.94493
H         72.18473       56.20649       56.81072
H         69.72811       56.41660       55.05435
H         70.55591       58.19720       57.40663
H         69.29708       56.91862       57.47037
N         70.82506       58.25409       53.56547
C         71.38932       59.28119       52.67758
C         70.43152       60.45585       52.47076
O         70.90686       61.54167       52.16431
C         71.70305       58.62849       51.28694
C         72.78580       57.53373       51.41739
C         72.07246       59.63454       50.17485
C         74.16900       58.05265       51.82325
H         69.97759       57.77978       53.24796
H         72.30200       59.71989       53.12563
H         70.76796       58.13186       50.93630
H         72.88755       56.99092       50.45096
H         72.45313       56.80255       52.17856
H         72.96464       60.23221       50.44822
H         72.26437       59.09698       49.22159
H         71.22900       60.32827       49.96817
H         74.13566       58.67359       52.73819
H         74.82687       57.18823       52.04177
H         74.62190       58.64590       51.00237
N         69.08225       60.28275       52.47942
C         68.12082       61.28183       52.02213
C         67.15780       61.75201       53.10225
O         66.31555       62.58617       52.79863
C         67.34615       60.71555       50.80300
C         66.54224       59.45218       51.02256
O         66.60871       58.75107       52.16310
O         65.86816       59.01325       50.10801
H         68.71963       59.37218       52.75188
H         68.65159       62.19468       51.67284
H         68.07546       60.49629       49.99355
H         66.65005       61.49794       50.43590
N         67.21895       61.29600       54.38213
C         66.31946       61.74854       55.42795
C         64.85389       61.42732       55.17464
O         64.03484       61.94890       55.91763
H         67.96529       60.65693       54.64241
H         66.43726       62.84793       55.51601
H         66.61913       61.31761       56.40623
N         64.42932       60.61328       54.15685
C         63.01161       60.43421       53.83924
C         62.19307       59.86739       54.99901
O         61.00096       60.13325       55.05625
C         62.77363       59.61692       52.54010
C         63.21566       58.18583       52.56114
O         64.00433       57.72266       53.53513
O         62.88869       57.44171       51.65123
H         65.12371       60.14899       53.56128
H         62.61502       61.45042       53.62315
H         63.28703       60.09722       51.67968
H         61.68240       59.61768       52.34052
N         62.76418       59.06773       55.94147
C         62.06249       58.49138       57.08214
C         62.05972       56.96452       57.07629
O         61.50072       56.38747       57.99732
H         63.75563       58.85196       55.83894
H         61.01603       58.85676       57.13325
H         62.58093       58.82704       58.00814
N         62.65997       56.24418       56.08384
C         62.81680       54.79069       56.07663
C         64.19119       54.39495       55.54410
O         64.83130       55.18162       54.85890
C         61.78131       54.10926       55.15665
C         60.33303       54.21614       55.63827
C         59.45567       53.35561       54.76183
N         58.85429       53.86413       53.66209
O         59.32015       52.17047       55.02980
H         63.09906       56.75646       55.32844
H         62.73401       54.40359       57.11498
H         62.02877       53.02599       55.10787
H         61.85870       54.52915       54.12707
H         59.98816       55.27204       55.62503
H         60.25852       53.84141       56.68272
H         58.97313       54.85426       53.40551
H         58.27655       53.25971       53.05799
N         64.66900       53.13428       55.76166
C         65.91007       52.65236       55.16865
C         65.61284       52.07325       53.80010
O         64.80691       51.16096       53.67776
C         66.64479       51.61773       56.06475
C         68.01328       51.23483       55.46012
C         66.89012       52.15817       57.48149
H         64.10629       52.48130       56.32677
H         66.60727       53.49908       55.05111
H         66.01695       50.70389       56.13656
H         68.48068       50.42426       56.05736
H         67.92345       50.87678       54.41641
H         68.70266       52.10352       55.46239
H         65.93316       52.38667       57.99204
H         67.42921       51.39734       58.08579
H         67.51014       53.07929       57.45176
N         66.29749       52.54929       52.72992
C         66.19383       52.05099       51.37020
C         67.29948       51.02742       51.12301
O         68.30050       51.03386       51.81955
C         66.32917       53.27917       50.44143
C         66.40957       52.98466       48.97729
N         65.34806       52.48506       48.31377
O         67.43933       53.23876       48.37238
H         67.01853       53.25494       52.90960
H         65.21222       51.54843       51.21482
H         67.25818       53.81923       50.72366
H         65.47122       53.95900       50.60736
H         64.45854       52.31760       48.80431
H         65.41297       52.29727       47.30328
N         67.15356       50.09724       50.13790
C         68.12693       49.05291       49.79842
C         69.48793       49.60929       49.43631
O         70.49195       49.01411       49.80351
C         67.62966       48.28331       48.56262
C         68.58483       47.17558       48.19869
C         68.69839       46.05465       49.03222
C         69.38655       47.26758       47.04768
C         69.58903       45.02877       48.71426
C         70.28754       46.24511       46.73800
C         70.38704       45.11891       47.56892
O         71.24595       44.12177       47.27962
H         66.27367       50.12368       49.60187
H         68.24190       48.35314       50.65865
H         67.54707       49.01301       47.72555
H         66.62053       47.85567       48.73734
H         68.09072       45.97642       49.92508
H         69.33039       48.13674       46.40237
H         69.65895       44.16523       49.36247
H         70.90878       46.32964       45.85512
H         71.81741       44.14742       46.49927
N         69.59443       50.70281       48.64418
C         70.87389       51.30597       48.29989
C         71.58559       51.72810       49.58404
O         72.77039       51.46567       49.73324
C         70.66020       52.48868       47.32743
C         70.07170       52.01168       45.98051
C         69.94402       53.15590       45.01850
O         68.84929       53.47918       44.58583
O         71.04279       53.82253       44.61585
H         68.72414       51.14465       48.32069
H         71.51300       50.56983       47.76451
H         71.64298       52.96630       47.12645
H         69.98846       53.25039       47.77987
H         69.07273       51.54745       46.13194
H         70.73450       51.24488       45.52208
N         70.87806       52.32218       50.58568
C         71.43305       52.71037       51.88713
C         71.80631       51.50258       52.75055
O         72.52566       51.66927       53.72544
C         70.40041       53.55876       52.66653
C         69.92514       54.76482       51.83265
C         68.82915       55.54949       52.46474
O         68.25863       55.16026       53.61699
O         68.41744       56.54310       51.89209
H         69.88172       52.48782       50.40068
H         72.33649       53.33353       51.70249
H         70.85529       53.92493       53.61312
H         69.53070       52.92157       52.93451
H         69.51027       54.46441       50.85530
H         70.79003       55.41870       51.63998
N         71.27500       50.27522       52.49672
C         71.51935       49.07707       53.27039
H         72.24614       49.24060       54.09022
H         70.55682       48.72828       53.70310
H         71.90534       48.27880       52.59946
H         70.61317       50.18381       51.73231
Ca        66.65291       57.51696       54.02406
O         65.77178       56.07573       51.70914
H         64.80388       55.94082       51.83554
H         65.83894       56.69940       50.94693
O         67.14875       55.84111       56.34969
H         67.16306       55.80470       57.33588
H         67.65494       55.04508       56.07690
O         65.88472       58.25607       56.53058
H         65.30668       57.86895       57.23066
H         65.97208       59.20803       56.77285

Ca 1.0



