%chk=holoCaM.loop1.water2.frame353.chk
%nprocshared=20
%mem=10GB
%nosave
#b3lyp/svp scf=(tight,noincore,xqc) Test 
#IOP(5/87=12) Density=Current Pop=(MK,readradii) iop(6/33=2) iop(6/42=6)

holoCaM.loop1.water2.frame353 

   0  1 
C         17.41595       14.98442       98.34027
C         16.77573       14.64122       99.65196
O         17.02493       15.32865      100.63204
H         18.51970       14.93128       98.44799
H         17.11003       14.27382       97.54294
H         17.12261       16.00942       98.03524
N         15.94213       13.56967       99.74760
C         15.32726       13.14850      100.99877
C         16.42301       12.78969      101.99698
O         17.26892       11.96536      101.67949
C         14.39231       11.95135      100.72701
C         13.60212       11.51862      101.92400
O         13.70880       12.16523      103.09590
O         12.83946       10.57382      101.82665
H         15.74805       13.02375       98.89326
H         14.69872       13.98341      101.38514
H         14.98792       11.09026      100.35581
H         13.65890       12.23969       99.94126
N         16.47002       13.39288      103.21836
C         17.53761       13.21009      104.18883
C         17.00929       12.44559      105.38870
O         17.52393       11.36827      105.65548
C         18.10863       14.59715      104.56556
C         19.30856       14.51753      105.52494
C         19.81966       15.90469      105.96660
C         20.32672       16.82339      104.83693
N         21.47863       16.25941      104.13215
H         15.71217       14.02665      103.47753
H         18.36257       12.61305      103.73946
H         17.30874       15.21647      105.02785
H         18.43117       15.09789      103.62783
H         20.12846       13.93540      105.05428
H         18.99778       13.97893      106.44571
H         20.64497       15.75752      106.69697
H         18.99492       16.43118      106.49479
H         20.62942       17.79188      105.29436
H         19.51248       17.04522      104.11472
H         22.25583       16.07015      104.80602
H         21.21284       15.38048      103.63461
H         21.81200       16.95061      103.42165
N         15.98332       12.92167      106.15585
C         15.45159       12.16785      107.29014
C         14.92519       10.79840      106.85307
O         15.39358        9.80231      107.38608
C         14.43039       12.98202      108.13680
C         13.21439       13.57479      107.47395
O         13.04514       13.52207      106.27236
O         12.31403       14.22925      108.23131
H         15.57947       13.84270      105.92980
H         16.28879       11.97929      108.00112
H         14.97000       13.83785      108.59730
H         14.08201       12.32365      108.96185
N         13.99486       10.66829      105.86610
C         13.47768        9.39579      105.37867
C         11.97335        9.35094      105.53942
O         11.46981        8.48087      106.23411
H         13.65606       11.51214      105.40420
H         13.93987        8.53864      105.91362
H         13.73132        9.29609      104.30100
N         11.20066       10.29853      104.93846
C          9.75075       10.43060      105.10813
C          8.98886       10.46216      103.77903
O          7.78161       10.65825      103.80534
C          9.45984       11.68472      105.96615
C          9.98771       12.98071      105.41548
O          9.93019       13.98778      106.10063
O         10.59173       13.02649      104.21560
H         11.69039       11.00280      104.37445
H          9.34899        9.57266      105.69047
H          9.95949       11.52538      106.94774
H          8.36932       11.78052      106.15461
N          9.60683       10.22315      102.58691
C          8.91455       10.15599      101.30678
C          8.54372       11.49348      100.68324
O          8.05798       11.46135       99.56084
H         10.59945        9.96377      102.58459
H          8.02171        9.49725      101.39302
H          9.60444        9.67401      100.58075
N          8.73114       12.69504      101.30636
C          8.42446       13.98516      100.67656
C          9.61535       14.94562      100.74909
O         10.63163       14.61284      101.34225
C          7.15130       14.60607      101.31103
C          5.88385       13.81914      100.94696
O          7.27422       14.73459      102.70486
H          9.08366       12.70546      102.27076
H          8.21439       13.84740       99.59237
H          6.99205       15.62080      100.88984
H          7.17979       13.83284      103.10961
H          5.75977       13.79080       99.84262
H          5.93056       12.77876      101.32993
H          4.99464       14.32301      101.38202
N          9.55029       16.15900      100.11929
C         10.62432       17.15607      100.07844
C         10.12149       18.48646      100.65456
O          9.01048       18.89443      100.34467
C         11.12087       17.31803       98.60993
C         11.67886       15.98657       98.02507
C         12.16814       18.44063       98.46702
C         12.92780       15.42542       98.72591
H          8.69234       16.38342       99.59224
H         11.49566       16.83106      100.67817
H         10.24867       17.61123       97.98399
H         11.93703       16.15051       96.95604
H         10.88556       15.20969       98.05352
H         13.06264       18.24175       99.08757
H         12.48439       18.53696       97.40673
H         11.74492       19.41901       98.77368
H         13.24134       14.48756       98.22076
H         13.77942       16.13358       98.66980
H         12.72926       15.18015       99.78751
N         10.92723       19.23397      101.46916
C         10.56067       20.49966      102.10357
C         11.46176       21.63145      101.61624
O         12.34007       21.40423      100.79707
C         10.70375       20.38228      103.65358
C          9.81090       19.29706      104.25708
O         12.05078       20.20616      104.02977
H         11.87763       18.90288      101.63944
H          9.50758       20.76386      101.86412
H         10.36396       21.32348      104.12938
H         12.26140       19.23924      104.03945
H          9.93007       19.28485      105.36206
H          8.74568       19.48958      104.01200
H         10.11315       18.31350      103.86175
N         11.31474       22.88292      102.13828
C         12.20674       24.01202      101.86994
C         13.63585       23.68914      102.26443
O         14.54142       24.00520      101.50631
C         11.75352       25.27128      102.65007
C         10.40743       25.79279      102.13586
O         11.67127       24.98507      104.02461
H         10.54589       23.02995      102.80669
H         12.19302       24.26372      100.78539
H         12.51448       26.06916      102.47932
H         11.59574       25.85287      104.49980
H         10.48803       26.04109      101.05616
H          9.60047       25.04488      102.27412
H         10.13011       26.71602      102.68604
N         13.90984       23.05380      103.43747
C         15.26187       22.69641      103.85306
C         15.92215       21.82044      102.79623
O         17.03452       22.10933      102.37846
C         15.25238       21.94642      105.21510
C         14.59440       22.70041      106.39373
C         15.21184       24.07875      106.66915
C         14.57400       24.72890      107.90653
N         15.12988       26.06072      108.14504
H         13.11674       22.78435      104.03585
H         15.87087       23.61699      103.97934
H         16.30566       21.72211      105.49556
H         14.72103       20.97491      105.10761
H         14.70804       22.06558      107.30066
H         13.50577       22.82385      106.21595
H         15.03974       24.74068      105.79414
H         16.30543       23.97174      106.83634
H         14.75903       24.08869      108.79804
H         13.47393       24.81593      107.76077
H         14.92230       26.68589      107.33244
H         14.69095       26.46696      109.00289
H         16.16391       26.00075      108.28954
N         15.27509       20.71809      102.33255
C         15.85859       19.75188      101.40106
C         15.84972       20.24231       99.95236
O         16.40037       19.55352       99.10398
C         15.05101       18.43882      101.48313
C         14.99856       17.87881      102.92274
C         13.90781       16.86704      103.07539
O         12.75928       17.16006      102.81318
O         14.13463       15.66641      103.59799
H         14.33391       20.53772      102.71066
H         16.90253       19.53536      101.71910
H         15.45343       17.66179      100.79640
H         14.02654       18.68844      101.14844
H         14.73845       18.66880      103.65133
H         15.98930       17.47319      103.22014
N         15.20781       21.38493       99.57801
C         15.13670       21.83072       98.20235
H         14.53432       22.76367       98.13876
H         16.15448       22.03809       97.81203
H         14.64356       21.05698       97.57528
H         14.72069       21.95014      100.27749
Ca        12.23970       14.48264      103.80124
O         12.06197       16.71351      105.89381
H         11.41870       16.13385      106.37210
H         12.11573       17.53161      106.44758
O          9.49996       15.91135      103.89025
H          8.99400       16.19162      104.69357
H          9.09216       16.42683      103.14967

Ca 1.0



