%chk=holoCaM.loop4.water3.frame161.chk
%nprocshared=20
%mem=10GB
%nosave
#b3lyp/svp scf=(tight,noincore,xqc) Test 
#IOP(5/87=12) Density=Current Pop=(MK,readradii) iop(6/33=2) iop(6/42=6)

holoCaM.loop4.water3.frame161 

   -3  1 
C         84.07283      112.63516       81.87900
C         83.23658      111.39068       81.95807
O         83.79357      110.32957       82.18623
H         84.82638      112.54319       81.07164
H         83.44926      113.53557       81.69680
H         84.59765      112.77552       82.84989
N         81.88061      111.45892       81.84418
C         80.98761      110.33761       82.11217
C         79.96407      110.14412       81.00180
O         79.26270      111.09399       80.67906
C         80.27815      110.65467       83.43697
C         79.25434      109.63012       83.79820
O         79.56544      108.45493       83.91301
O         77.98050      110.01712       83.99611
H         81.44930      112.38228       81.68012
H         81.55463      109.39085       82.25865
H         79.77587      111.64521       83.37046
H         81.03899      110.70734       84.24552
N         79.77472      108.91399       80.42732
C         78.73516      108.64830       79.42858
C         77.68964      107.62249       79.89873
O         76.73542      107.42898       79.15944
C         79.36199      108.23143       78.05772
C         80.10147      106.86952       78.13342
C         80.28107      109.35455       77.54104
C         80.64836      106.37870       76.78953
H         80.37944      108.13486       80.72489
H         78.15799      109.58035       79.24162
H         78.52944      108.12350       77.32657
H         79.39685      106.09328       78.50133
H         80.94448      106.93811       78.84094
H         80.64284      109.14039       76.51534
H         79.72101      110.31205       77.48999
H         81.15919      109.48729       78.20838
H         81.43237      107.05769       76.39720
H         81.11647      105.38042       76.92507
H         79.82925      106.28796       76.04540
N         77.79138      106.91730       81.07345
C         76.80547      105.90104       81.48407
C         76.17981      106.13579       82.86890
O         75.31136      105.36056       83.24694
C         77.42166      104.48940       81.37059
C         78.60599      104.21242       82.25609
O         79.09693      105.14547       83.09162
O         79.13354      103.11337       82.21224
H         78.61738      107.06062       81.66613
H         75.95030      105.90397       80.77454
H         77.73828      104.33337       80.31609
H         76.63578      103.73673       81.60053
N         76.52830      107.18560       83.66159
C         75.89177      107.50372       84.93799
C         76.08839      106.44440       86.00243
O         75.10772      105.93412       86.52382
H         77.24322      107.83105       83.32071
H         74.80757      107.68165       84.77177
H         76.33016      108.44558       85.33168
N         77.34322      106.07768       86.37655
C         77.63494      105.06355       87.40015
C         78.67830      105.51759       88.43704
O         78.97473      104.74052       89.33508
C         78.10713      103.75927       86.71859
C         79.36464      103.92943       85.92177
O         79.91827      105.14532       85.79898
O         79.88626      102.96675       85.38476
H         78.11109      106.51958       85.85605
H         76.70702      104.80682       87.95603
H         77.30936      103.38176       86.04438
H         78.28912      102.98971       87.50099
N         79.28904      106.73549       88.37841
C         80.30116      107.18310       89.32477
C         81.59240      106.38040       89.26854
O         82.01901      105.89460       90.30536
H         79.01590      107.40462       87.64955
H         79.87935      107.17535       90.35471
H         80.56458      108.23649       89.08647
N         82.30182      106.26521       88.10386
C         83.63602      105.66014       87.99858
C         84.21882      105.87867       86.56121
O         83.91773      104.86454       85.65473
C         83.66999      104.17593       88.45148
C         82.57820      103.28342       87.81602
C         82.69783      101.83278       88.21276
N         81.81950      100.93067       87.71843
O         83.58902      101.45830       88.96158
H         81.89919      106.69352       87.26124
H         84.29722      106.23537       88.68374
H         83.52805      104.12573       89.55141
H         84.68390      103.77376       88.23670
H         82.62376      103.30358       86.71571
H         81.57689      103.65563       88.12309
H         81.06673      101.22612       87.08009
H         81.89641       99.93337       87.96592
N         85.65533      106.16992       86.49796
C         86.01892      106.50485       85.09389
C         86.60028      105.27015       84.41307
O         87.60651      104.75589       84.88118
C         86.93256      107.76232       85.01696
C         88.30076      107.57764       85.68795
C         87.10130      108.22576       83.56302
H         85.80642      106.99734       87.11895
H         85.10644      106.80914       84.53197
H         86.40420      108.58358       85.55202
H         88.18078      107.26725       86.74679
H         88.91490      106.82475       85.15435
H         88.85508      108.53969       85.67308
H         86.10559      108.42582       83.11194
H         87.68219      109.17080       83.52595
H         87.62062      107.45604       82.95529
N         85.99891      104.72190       83.31179
C         86.49992      103.51266       82.66004
C         87.61240      103.82780       81.66550
O         87.89696      104.99233       81.42553
C         85.32916      102.60854       82.15913
C         85.29076      102.30913       80.68173
N         85.53410      101.05508       80.22783
O         85.01797      103.19701       79.89116
H         85.14429      105.15829       82.94200
H         86.99531      102.90241       83.44853
H         84.34905      103.03453       82.44973
H         85.39418      101.64391       82.70677
H         85.76207      100.29090       80.88130
H         85.51092      100.84496       79.21901
N         88.34023      102.81556       81.11212
C         89.52969      103.03119       80.28043
C         89.25510      103.68210       78.92362
O         90.21793      104.05900       78.27019
C         90.33078      101.71363       80.15791
C         89.55372      100.60325       79.49126
C         89.34590      100.60590       78.10461
C         89.02610       99.55128       80.26047
C         88.60975       99.58344       77.49847
C         88.28017       98.53735       79.65534
C         88.06667       98.55025       78.27410
O         87.34048       97.56800       77.70455
H         88.09185      101.85568       81.39142
H         90.18744      103.73425       80.84013
H         90.57826      101.41055       81.19974
H         91.30059      101.86596       79.63625
H         89.75823      101.39540       77.49009
H         89.17282       99.52660       81.33328
H         88.45760       99.59918       76.42665
H         87.86437       97.74381       80.26291
H         87.16340       97.54600       76.75338
N         87.99032      103.89507       78.45790
C         87.68609      104.67378       77.25605
C         87.09281      106.01820       77.64510
O         87.29722      106.97819       76.91471
C         86.74897      103.92104       76.29119
C         87.39637      102.64628       75.74407
C         86.49515      101.94622       74.76824
O         85.29124      101.49121       75.16470
O         86.85617      101.77104       73.61514
H         87.20643      103.54400       79.01127
H         88.62419      104.90889       76.70584
H         86.51496      104.58481       75.42892
H         85.79675      103.67205       76.81084
H         87.60431      101.95773       76.57974
H         88.35395      102.90829       75.24094
N         86.40563      106.18614       78.81242
C         85.98916      107.49031       79.31065
C         87.19121      108.29889       79.79882
O         87.00151      109.45655       80.14546
C         84.99386      107.31004       80.47902
C         83.69613      106.62046       80.01692
C         82.76087      106.29118       81.14969
O         81.70252      105.73141       80.91615
O         83.08392      106.56990       82.42339
H         86.19622      105.36953       79.39582
H         85.47392      108.04517       78.49503
H         84.72597      108.29671       80.91081
H         85.49121      106.70811       81.26791
H         83.92752      105.66652       79.50269
H         83.18387      107.29217       79.29606
N         88.44547      107.75656       79.88547
C         89.60474      108.47958       80.36558
H         90.38800      108.47791       79.57855
H         89.37201      109.53085       80.63176
H         90.00547      107.96792       81.26649
H         88.61266      106.77606       79.62497
Ca        81.90602      105.43719       84.95014
O         81.93623      103.34823       83.11139
H         82.22644      102.82713       83.90215
H         81.80596      102.67449       82.39962
O         80.83033      108.70847       86.31367
H         80.00984      109.22464       86.51005
H         81.55356      109.20304       86.77155
O         83.14439      108.60229       84.69977
H         83.58113      108.49943       83.82120
H         83.81517      109.08096       85.24652

Ca 1.0



