%chk=holoCaM-CaMKII.loop4.water1.frame457.chk
%nprocshared=20
%mem=10GB
%nosave
#b3lyp/svp scf=(tight,noincore,xqc) Test 
#IOP(5/87=12) Density=Current Pop=(MK,readradii) iop(6/33=2) iop(6/42=6)

holoCaM-CaMKII.loop4.water1.frame457 

   -3  1 
C         61.39455       56.82361       24.07776
C         60.32819       56.50402       23.07312
O         59.53743       55.60421       23.31177
H         62.05202       57.64634       23.72327
H         60.92732       57.12957       25.03559
H         62.02360       55.92372       24.24188
N         60.24930       57.20679       21.91262
C         59.27720       56.91734       20.86657
C         59.56055       55.53204       20.29652
O         60.68327       55.31643       19.85875
C         59.42326       57.98115       19.75991
C         58.39190       57.89174       18.68354
O         58.51826       58.59436       17.69936
O         57.32491       57.07780       18.79048
H         60.92020       57.97816       21.76557
H         58.25051       56.98903       21.29098
H         60.43039       57.88111       19.29866
H         59.34565       59.00184       20.19603
N         58.60684       54.55091       20.25478
C         58.88757       53.20616       19.74550
C         58.25361       52.94941       18.37979
O         58.56571       51.91976       17.79785
C         58.49090       52.09335       20.77156
C         56.95291       51.91467       20.89053
C         59.12860       52.36563       22.14767
C         56.54387       50.67695       21.69751
H         57.65879       54.76570       20.58136
H         59.98215       53.11082       19.57719
H         58.90453       51.13773       20.37955
H         56.51428       51.77193       19.88122
H         56.49976       52.82240       21.32848
H         58.69195       53.27935       22.60263
H         58.95991       51.52333       22.84821
H         60.22561       52.49966       22.04950
H         56.87389       50.73791       22.75318
H         55.43741       50.58037       21.69527
H         56.97189       49.76255       21.23175
N         57.34898       53.80637       17.81464
C         56.72269       53.57105       16.51167
C         56.95637       54.71082       15.51375
O         56.47358       54.60961       14.39424
C         55.22934       53.23363       16.69848
C         54.36328       54.31296       17.28941
O         54.85522       55.52310       17.61647
O         53.17896       54.08210       17.46778
H         57.05612       54.63679       18.34126
H         57.16361       52.66668       16.03849
H         55.16482       52.33996       17.35865
H         54.80221       52.95239       15.71147
N         57.74388       55.78313       15.81329
C         58.12840       56.80330       14.85001
C         57.01526       57.72269       14.39520
O         56.81790       57.84243       13.19424
H         58.19040       55.83971       16.73680
H         58.61030       56.31565       13.97356
H         58.89503       57.45541       15.31893
N         56.30701       58.46936       15.29377
C         55.38389       59.54010       14.89760
C         55.77357       60.91409       15.46350
O         55.23246       61.90160       14.98403
C         53.91768       59.18084       15.22044
C         53.59950       58.90641       16.66895
O         52.45213       58.63621       16.98290
O         54.54745       58.92897       17.62193
H         56.46244       58.28120       16.29043
H         55.43104       59.66328       13.79295
H         53.64659       58.27284       14.64064
H         53.26773       60.01327       14.87027
N         56.68218       61.06805       16.47144
C         57.13490       62.35119       16.99071
C         56.69047       62.60596       18.42020
O         57.11703       63.60015       18.98602
H         57.08268       60.24313       16.91816
H         56.77125       63.19912       16.37276
H         58.24610       62.35686       16.94863
N         55.79331       61.78991       19.04531
C         55.26698       62.02135       20.38791
C         55.51924       60.80309       21.26879
O         56.00505       59.79369       20.77797
C         53.76470       62.46811       20.27581
C         52.80047       61.64440       19.36295
C         52.27917       60.31524       19.92137
N         51.19721       60.51320       20.87758
O         53.32443       59.66663       20.54183
H         55.42262       60.98359       18.53608
H         55.80780       62.86054       20.87660
H         53.81459       63.46504       19.78598
H         53.31329       62.62818       21.27848
H         53.28650       61.45810       18.38646
H         51.90701       62.26254       19.13047
H         50.37484       60.88930       20.35189
H         50.90559       59.57157       21.22804
N         55.21164       60.83803       22.60010
C         55.34064       59.68235       23.48977
C         54.04392       59.53740       24.28897
O         53.66094       60.47380       24.97413
C         56.57890       59.85052       24.41513
C         56.75714       58.63623       25.34496
C         57.86351       60.00669       23.57865
H         54.88935       61.72892       23.00458
H         55.51604       58.75374       22.90065
H         56.45099       60.76093       25.04005
H         56.92081       57.71067       24.75260
H         57.63870       58.78360       26.00500
H         55.87114       58.49640       25.99560
H         58.02433       59.11325       22.93548
H         57.80989       60.90456       22.92944
H         58.74691       60.12539       24.24113
N         53.33499       58.37157       24.26473
C         52.09150       58.14711       25.01257
C         52.42697       57.50230       26.36065
O         53.59325       57.25140       26.61695
C         51.16353       57.29476       24.08754
C         49.74311       57.00403       24.53718
N         48.68451       57.49702       23.85225
O         49.53408       56.26571       25.48313
H         53.72195       57.58145       23.72879
H         51.59190       59.11911       25.21813
H         51.65406       56.32021       23.87046
H         51.09689       57.84717       23.12574
H         48.81444       58.09752       23.02632
H         47.72303       57.26755       24.14799
N         51.46455       57.23577       27.29100
C         51.71085       56.48469       28.52623
C         52.21282       55.07712       28.21310
O         53.17964       54.64760       28.82480
C         50.41614       56.39759       29.36420
C         50.60984       55.59971       30.63767
C         51.52866       56.01360       31.61961
C         49.87186       54.42224       30.84705
C         51.70790       55.25821       32.78376
C         50.05187       53.67038       32.01134
C         50.97239       54.08530       32.98365
O         51.15785       53.36676       34.10961
H         50.50903       57.56778       27.11028
H         52.47191       57.01841       29.13820
H         49.62111       55.93083       28.74189
H         50.07805       57.42251       29.63112
H         52.10936       56.91727       31.48586
H         49.15911       54.08115       30.10683
H         52.42080       55.58396       33.53121
H         49.47663       52.76443       32.15478
H         50.67010       52.54900       34.28433
N         51.61459       54.31053       27.25478
C         52.08401       52.97700       26.86474
C         53.51304       52.96815       26.31608
O         54.03001       51.88231       26.09239
C         51.15530       52.37183       25.78516
C         49.74912       52.06272       26.31670
C         48.87462       51.51801       25.22270
O         49.18618       50.49487       24.63335
O         47.73587       52.15562       24.89075
H         50.79626       54.70220       26.77562
H         52.07391       52.32414       27.76526
H         51.58517       51.41376       25.41748
H         51.09678       53.07612       24.92341
H         49.27668       52.97760       26.73026
H         49.82392       51.30760       27.12905
N         54.21248       54.11306       26.07570
C         55.58204       54.14650       25.57619
C         56.54323       54.74611       26.59657
O         57.74425       54.62142       26.39905
C         55.62053       54.96731       24.27897
C         54.70198       54.36802       23.20656
C         54.62200       55.26249       22.01345
O         55.62739       55.66572       21.45445
O         53.41531       55.65848       21.58512
H         53.75112       55.00784       26.22012
H         55.93734       53.11290       25.37268
H         56.66080       55.01373       23.88529
H         55.28942       56.00230       24.51252
H         53.66698       54.25506       23.59673
H         55.07426       53.36764       22.92435
N         56.10776       55.40816       27.70615
C         57.00465       55.92218       28.71505
H         57.72734       56.63322       28.26472
H         56.42041       56.45376       29.49814
H         57.54581       55.07960       29.19466
H         55.11065       55.57510       27.85441
Ca        53.25077       57.46771       20.31834
O         51.21130       55.85623       19.22554
H         51.44839       56.47283       18.48774
H         52.03583       55.33071       19.38046

Ca 1.0



