%chk=holoCaM-CaMKII.loop1.water2.frame155.chk
%nprocshared=20
%mem=10GB
%nosave
#b3lyp/svp scf=(tight,noincore,xqc) Test 
#IOP(5/87=12) Density=Current Pop=(MK,readradii) iop(6/33=2) iop(6/42=6)

holoCaM-CaMKII.loop1.water2.frame155 

   0  1 
C          2.06798      106.81509       51.18621
C          1.83484      108.26727       51.48754
O          2.37744      108.76664       52.46137
H          1.51878      106.49732       50.27388
H          3.15107      106.63873       51.01989
H          1.71949      106.19593       52.03864
N          1.04040      109.01526       50.67561
C          0.78086      110.43421       50.88805
C          0.01580      110.63453       52.19056
O         -1.01370      109.99637       52.37009
C         -0.02331      110.98136       49.68873
C         -0.08359      112.47865       49.62122
O         -0.67803      113.00311       48.69611
O          0.56425      113.24973       50.51348
H          0.62082      108.55520       49.85223
H          1.75886      110.96783       50.90484
H         -1.05054      110.55636       49.69885
H          0.47130      110.66401       48.74692
N          0.45088      111.51531       53.13698
C         -0.20548      111.71036       54.42625
C         -0.90304      113.06364       54.53547
O         -1.50663      113.30555       55.56844
C          0.82915      111.59037       55.57495
C          1.63688      110.28290       55.60926
C          0.75635      109.03698       55.75866
C          1.61296      107.77340       55.91147
N          0.77019      106.58144       55.99437
H          1.27964      112.08175       52.92562
H         -1.00072      110.94836       54.57394
H          0.30678      111.70066       56.55113
H          1.55871      112.42685       55.48881
H          2.32822      110.34323       56.47947
H          2.25553      110.19827       54.69093
H          0.11478      108.93096       54.85910
H          0.10865      109.14301       56.65641
H          2.22901      107.85503       56.83532
H          2.29898      107.67371       55.04159
H          0.11407      106.65720       56.80539
H          0.22505      106.46963       55.10853
H          1.37723      105.74046       56.12563
N         -0.86846      113.99269       53.53021
C         -1.49275      115.31199       53.64443
C         -2.54895      115.55484       52.56689
O         -3.15114      116.62283       52.58586
C         -0.40090      116.39477       53.54374
C          0.73774      116.14145       54.50278
O          0.52973      116.08335       55.70409
O          1.99048      115.95777       54.03117
H         -0.35097      113.79098       52.67120
H         -1.99237      115.41863       54.63122
H         -0.84170      117.39560       53.74379
H         -0.01221      116.39593       52.50627
N         -2.83367      114.64098       51.59456
C         -3.81338      114.86958       50.54178
C         -3.41298      116.02234       49.64509
O         -4.18017      116.95897       49.48306
H         -2.34484      113.73324       51.58044
H         -4.81681      115.04256       50.98806
H         -3.87323      113.95844       49.90724
N         -2.19725      116.00094       49.03656
C         -1.68342      117.03770       48.14283
C         -1.26043      116.47138       46.78736
O         -0.70832      117.22146       45.99276
C         -0.53511      117.80317       48.84214
C          0.62331      116.98893       49.35408
O          1.55397      117.60711       50.09654
O          0.68896      115.78227       49.20200
H         -1.58991      115.20298       49.25038
H         -2.46304      117.80489       47.93859
H         -0.98013      118.29681       49.73440
H         -0.15100      118.60676       48.17729
N         -1.53083      115.18157       46.42296
C         -1.18316      114.62612       45.12188
C          0.29566      114.32971       44.93666
O          0.64801      113.86847       43.85989
H         -2.07624      114.57702       47.05186
H         -1.54332      115.31308       44.32331
H         -1.71548      113.65986       44.99498
N          1.21893      114.56510       45.91265
C          2.65304      114.33679       45.75118
C          3.20941      113.50709       46.89890
O          2.92788      113.81635       48.04967
C          3.39697      115.68961       45.66794
C          3.03369      116.45894       44.38761
O          3.17769      116.47871       46.81116
H          0.90912      114.97313       46.80287
H          2.87756      113.80984       44.79695
H          4.48771      115.47967       45.60344
H          2.26798      116.87090       46.74883
H          3.27043      115.84234       43.49337
H          1.95321      116.71395       44.36611
H          3.62423      117.39687       44.33130
N          4.09705      112.49693       46.65275
C          4.76128      111.73000       47.70418
C          6.22369      112.14747       47.73280
O          6.94066      111.89429       46.77339
C          4.61857      110.19925       47.44210
C          3.12904      109.78412       47.38181
C          5.37213      109.37967       48.51216
C          2.92247      108.35292       46.87743
H          4.37549      112.31047       45.67665
H          4.30832      111.96362       48.69344
H          5.07771      109.98764       46.45016
H          2.58860      110.44307       46.66978
H          2.66797      109.90138       48.38466
H          5.33963      108.29445       48.29377
H          6.44546      109.65126       48.53262
H          4.93859      109.55653       49.51932
H          1.83574      108.13559       46.81727
H          3.35854      108.24384       45.86059
H          3.37834      107.60218       47.55218
N          6.72315      112.83115       48.80107
C          8.11553      113.26882       48.89013
C          9.02966      112.08276       49.16788
O          8.54318      110.97970       49.35479
C          8.28023      114.35030       49.99564
C          7.44304      115.59676       49.68921
O          7.89965      113.83003       51.23888
H          6.07597      113.08108       49.56000
H          8.40931      113.73966       47.92582
H          9.34884      114.65983       50.03548
H          8.21573      114.46631       51.93233
H          7.60238      116.36244       50.47786
H          7.73843      116.03079       48.71168
H          6.36406      115.34719       49.66569
N         10.38010      112.24134       49.22583
C         11.29371      111.16067       49.59834
C         11.00791      110.73736       51.03666
O         10.81539      109.55916       51.29808
C         12.76176      111.62798       49.43637
C         13.75490      110.49111       49.70877
O         12.94952      112.07723       48.11777
H         10.77084      113.17373       49.01973
H         11.14944      110.29955       48.90650
H         12.95060      112.46441       50.15069
H         13.69206      112.73613       48.13696
H         13.58038      109.65107       49.00174
H         14.79365      110.85796       49.56670
H         13.65793      110.11530       50.74816
N         10.90991      111.69305       52.00369
C         10.59234      111.45646       53.41288
C          9.35180      110.59358       53.58213
O          9.43777      109.57983       54.26225
C         10.46056      112.83654       54.10651
C          9.98423      112.81629       55.56631
C         10.17907      114.21076       56.18781
C          9.59188      114.30979       57.60048
N          9.94380      115.59019       58.21796
H         11.03320      112.67170       51.69949
H         11.43564      110.91466       53.89696
H          9.75096      113.48064       53.54203
H         11.46676      113.30937       54.05469
H         10.57012      112.08178       56.15863
H          8.91021      112.52502       55.58778
H          9.70012      114.99088       55.55503
H         11.27219      114.41407       56.23006
H          9.98264      113.48563       58.23586
H          8.48423      114.21542       57.53972
H         10.98099      115.64650       58.34618
H          9.62213      116.38829       57.62331
H          9.48793      115.65902       59.15623
N          8.17277      110.91795       52.98985
C          6.95720      110.12021       53.14545
C          7.18940      108.70604       52.63706
O          7.07301      107.77097       53.41743
C          5.75745      110.79885       52.43997
C          5.45443      112.16675       53.08671
C          4.29283      112.87544       52.46019
O          4.29292      113.14671       51.27140
O          3.27502      113.28865       53.23370
H          8.15392      111.75970       52.40516
H          6.70463      110.05879       54.22851
H          4.85885      110.15095       52.54053
H          5.97708      110.92987       51.35718
H          6.32832      112.83758       53.00093
H          5.24178      112.02207       54.16829
N          7.56467      108.47625       51.35136
C          7.87697      107.15272       50.85691
H          8.72471      106.72538       51.43558
H          6.99249      106.48856       50.94687
H          8.17829      107.20919       49.78875
H          7.65692      109.26794       50.70836
Ca         2.38598      116.51396       51.87732
O          5.33611      116.35227       52.29826
H          5.27146      115.77543       53.09999
H          4.96205      117.22266       52.58706
O          4.31050      117.07125       49.49413
H          5.03306      117.24265       48.83991
H          4.01763      116.14317       49.30907

Ca 1.0



