%chk=holoCaM.loop2.water2.frame283.chk
%nprocshared=20
%mem=10GB
%nosave
#b3lyp/svp scf=(tight,noincore,xqc) Test 
#IOP(5/87=12) Density=Current Pop=(MK,readradii) iop(6/33=2) iop(6/42=6)

holoCaM.loop2.water2.frame283 

   -2  1 
C         33.66686       66.60244       49.68646
C         32.84211       65.50399       49.07719
O         31.63620       65.64933       48.95101
H         34.42933       66.93917       48.94947
H         33.03750       67.47550       49.95925
H         34.18758       66.22822       50.59180
N         33.45997       64.38246       48.62394
C         32.78092       63.31997       47.89084
C         31.89502       62.45705       48.78902
O         32.39372       61.94490       49.78172
C         33.84491       62.41385       47.23471
C         33.26526       61.49636       46.20171
O         33.98016       60.67523       45.65191
O         31.98364       61.62536       45.81522
H         34.48721       64.33815       48.72025
H         32.19584       63.79306       47.07080
H         34.36640       61.82737       48.02202
H         34.60032       63.03469       46.70767
N         30.59552       62.19085       48.45635
C         29.72511       61.29745       49.22225
C         29.22363       60.08305       48.41736
O         28.54768       59.25608       49.01400
C         28.52973       62.10559       49.74386
H         30.20962       62.63217       47.61615
H         30.27184       60.89575       50.10228
H         28.88668       62.95582       50.36405
H         27.93453       62.51236       48.89714
H         27.86774       61.47311       50.37341
N         29.46064       59.91973       47.07668
C         28.86895       58.83726       46.27027
C         29.81833       58.20767       45.22929
O         29.37453       57.31448       44.52080
C         27.58855       59.36749       45.59165
C         27.83563       60.50341       44.65100
O         29.08408       60.92240       44.39567
O         26.89082       61.08969       44.14785
H         29.94966       60.67060       46.58767
H         28.53217       58.01460       46.93798
H         26.90779       59.73376       46.39185
H         27.06622       58.55444       45.04409
N         31.12465       58.58087       45.09108
C         32.07027       57.92625       44.18731
C         31.92110       58.18642       42.68807
O         32.71215       57.61587       41.94980
H         31.50974       59.27760       45.73525
H         32.03303       56.83088       44.37304
H         33.09375       58.26906       44.45135
N         30.97635       59.00834       42.14479
C         30.83098       59.21143       40.69255
C         31.95625       60.03934       40.02622
O         31.84820       60.29291       38.83400
C         29.43599       59.80927       40.37137
C         29.21006       61.20826       40.86734
N         28.02466       61.82251       40.65581
O         30.09552       61.79713       41.45745
H         30.29220       59.44466       42.77507
H         30.81262       58.21081       40.20614
H         28.65917       59.14959       40.81579
H         29.28605       59.81315       39.26961
H         27.26083       61.33922       40.16173
H         27.87123       62.78527       40.98642
N         33.06870       60.46502       40.69786
C         34.16907       61.20241       40.07738
C         33.91542       62.68464       39.82031
O         34.82890       63.33639       39.33408
H         33.20610       60.17605       41.67038
H         34.47539       60.69130       39.13811
H         35.03895       61.16685       40.76839
N         32.73408       63.29380       40.12112
C         32.45363       64.71522       39.90388
C         31.98765       65.40127       41.18786
O         31.83445       64.75365       42.21246
C         31.35908       64.85348       38.80834
C         31.89862       64.44653       37.43751
O         30.23805       64.06166       39.11261
H         31.97883       62.72274       40.50126
H         33.36380       65.25782       39.56469
H         31.04037       65.91239       38.68834
H         29.77830       64.48669       39.88229
H         31.10431       64.57074       36.67089
H         32.75189       65.10327       37.15976
H         32.23725       63.39017       37.43572
N         31.68702       66.73255       41.16227
C         31.08137       67.47879       42.25880
C         29.63177       67.74339       41.88689
O         29.34271       68.23255       40.80359
C         31.90214       68.77102       42.58687
C         33.12597       68.37091       43.45784
C         31.04680       69.82718       43.32136
C         34.06662       69.52007       43.82597
H         31.81283       67.24461       40.27624
H         31.04927       66.87154       43.18710
H         32.23243       69.24317       41.63564
H         33.72088       67.60042       42.92317
H         32.75909       67.92896       44.41209
H         30.66781       69.43193       44.28328
H         31.62021       70.75658       43.50704
H         30.18762       70.14067       42.69228
H         33.55538       70.29116       44.43778
H         34.89927       69.12233       44.44496
H         34.48724       69.98405       42.91128
N         28.66728       67.45046       42.80053
C         27.23200       67.59403       42.60403
C         26.79474       68.87142       43.26957
O         27.64761       69.59905       43.75151
C         26.51262       66.40443       43.27694
C         27.05337       65.08250       42.83993
O         28.37665       64.87613       42.93975
O         26.30593       64.17284       42.51843
H         28.96911       67.14283       43.73531
H         26.97883       67.63592       41.52197
H         25.41227       66.44043       43.12884
H         26.70881       66.46347       44.37165
N         25.49169       69.24394       43.32290
C         25.09919       70.49894       43.94061
C         25.37215       70.51451       45.45438
O         26.08442       71.41484       45.87235
C         23.66159       70.88291       43.53899
C         23.29440       72.27398       43.99406
C         24.06333       73.38621       43.59701
C         22.16723       72.47700       44.80551
C         23.71564       74.67101       44.01539
C         21.81717       73.76753       45.21309
C         22.59213       74.86267       44.82107
H         24.77823       68.65280       42.86784
H         25.73619       71.28341       43.47797
H         22.92515       70.14569       43.90052
H         23.60143       70.86977       42.42868
H         24.93314       73.26884       42.96414
H         21.55540       71.63921       45.11612
H         24.31702       75.51759       43.70978
H         20.94327       73.91846       45.83208
H         22.32116       75.86053       45.13821
N         24.89054       69.58032       46.34394
C         25.17889       69.59504       47.78134
C         26.65947       69.68952       48.09810
O         27.05863       70.50237       48.92036
C         24.65158       68.23666       48.27427
C         23.49185       67.99938       47.34444
C         24.07772       68.42959       46.00180
H         24.61262       70.42743       48.25515
H         25.38364       67.42606       48.05277
H         24.41919       68.20079       49.36068
H         23.07319       66.97065       47.36110
H         22.68910       68.71931       47.62531
H         24.73550       67.64749       45.56218
H         23.23010       68.64293       45.33356
N         27.52714       68.86805       47.45161
C         28.96757       68.82065       47.68022
C         29.58107       70.18596       47.42557
O         30.29179       70.69626       48.27936
C         29.60805       67.75453       46.75992
C         29.03070       66.34282       47.02012
C         29.56328       65.28937       46.09883
O         30.42627       65.53499       45.27342
O         29.03620       64.05549       46.16031
H         27.12245       68.25751       46.72827
H         29.17570       68.51832       48.73107
H         30.70869       67.73238       46.92084
H         29.41570       68.03756       45.70756
H         27.93601       66.33055       46.86788
H         29.22765       66.03815       48.06843
N         29.29954       70.85462       46.27770
C         29.80927       72.17140       45.97526
H         30.91494       72.14092       45.89497
H         29.38994       72.51786       45.00486
H         29.50189       72.88859       46.76509
H         28.66583       70.42255       45.60486
Ca        29.17434       62.95699       43.60147
O         32.76988       62.31716       43.12823
H         32.74619       61.37776       43.43370
H         33.73084       62.55431       43.12254
O         33.26488       64.70977       44.84490
H         34.25238       64.76404       44.83937
H         32.96811       65.58589       44.49799

Ca 1.0



