%chk=holoCaM.loop3.water2.frame250.chk
%nprocshared=20
%mem=10GB
%nosave
#b3lyp/svp scf=(tight,noincore,xqc) Test 
#IOP(5/87=12) Density=Current Pop=(MK,readradii) iop(6/33=2) iop(6/42=6)

holoCaM.loop3.water2.frame250 

   0  1 
C         47.00957       86.15415       54.78700
C         46.16648       87.39256       54.81578
O         45.09890       87.39141       54.21883
H         47.94217       86.28551       55.37488
H         46.43505       85.30954       55.22275
H         47.27849       85.91256       53.73827
N         46.57023       88.48918       55.51627
C         45.75258       89.68819       55.61979
C         45.60840       90.34564       54.25134
O         46.59324       90.78926       53.67827
C         46.35265       90.63829       56.67389
C         45.45514       91.77099       57.07258
O         44.36599       91.94766       56.55114
O         45.85018       92.57530       58.07013
H         47.46211       88.44418       56.03368
H         44.75822       89.36899       56.00762
H         47.33187       91.03464       56.32950
H         46.52894       90.05430       57.60240
N         44.38748       90.37975       53.65550
C         44.11733       90.87972       52.31214
C         44.40657       92.36469       52.16978
O         45.10008       92.74046       51.23536
C         42.63847       90.59125       51.96335
C         42.29435       90.88745       50.49697
C         40.84598       90.48327       50.19060
C         40.51178       90.70045       48.70926
N         39.14000       90.28550       48.41665
H         43.60703       89.95486       54.16929
H         44.73987       90.30567       51.58934
H         41.96856       91.17152       52.63574
H         42.45353       89.50687       52.13520
H         42.97684       90.29871       49.84535
H         42.43396       91.96867       50.27968
H         40.15162       91.08040       50.82191
H         40.70826       89.40588       50.43189
H         41.21230       90.10480       48.08193
H         40.63589       91.77548       48.45107
H         38.94617       90.43583       47.40023
H         39.01674       89.27000       48.63610
H         38.46439       90.85220       48.97884
N         43.88379       93.26504       53.04934
C         44.00465       94.71642       52.89409
C         44.95309       95.34580       53.91678
O         45.13658       96.55461       53.86575
C         42.60601       95.38903       52.90917
C         41.90162       95.21293       54.21987
O         41.76073       96.16532       54.97097
O         41.48249       93.99796       54.61051
H         43.38779       92.88984       53.86778
H         44.44940       94.95403       51.90368
H         41.96236       94.99145       52.09608
H         42.74866       96.47675       52.72480
N         45.65131       94.59627       54.81732
C         46.67551       95.14897       55.69042
C         46.14018       96.10372       56.73096
O         46.59018       97.24012       56.77523
H         45.52588       93.57598       54.83717
H         47.45172       95.65003       55.06954
H         47.17279       94.31660       56.23294
N         45.21411       95.68559       57.63950
C         44.74230       96.50218       58.75638
C         45.06951       95.83867       60.10015
O         44.55504       96.27568       61.11889
C         43.24255       96.84109       58.55328
C         42.18117       95.75811       58.84424
N         41.58541       95.90775       60.16166
O         42.67026       94.46349       58.69559
H         44.84002       94.73349       57.54343
H         45.25410       97.49002       58.74675
H         43.12603       97.16257       57.49556
H         42.98570       97.73586       59.16150
H         41.12707       96.84493       60.21598
H         40.81637       95.20635       60.24310
N         45.97793       94.81442       60.17917
C         46.35275       94.12446       61.40828
C         45.35482       93.06950       61.86860
O         45.62360       92.42617       62.87215
H         46.50436       94.54993       59.33704
H         46.55773       94.86637       62.21047
H         47.29916       93.57274       61.21813
N         44.19225       92.83367       61.19871
C         43.17161       91.86949       61.60773
C         42.79093       90.98285       60.42845
O         42.54683       91.49652       59.34580
C         41.95111       92.65667       62.10979
C         42.31814       93.42513       63.36125
C         42.54786       94.80733       63.30827
C         42.46479       92.75755       64.58998
C         42.92672       95.51185       64.45189
C         42.82771       93.46646       65.74101
C         43.06508       94.84743       65.67278
O         43.42778       95.54439       66.76831
H         43.97715       93.41016       60.38070
H         43.51537       91.22884       62.44989
H         41.09127       91.98826       62.33616
H         41.63265       93.34280       61.30058
H         42.45990       95.33925       62.37991
H         42.29100       91.69070       64.65775
H         43.11679       96.57576       64.38542
H         42.92912       92.94194       66.68267
H         43.53481       95.12538       67.63380
N         42.66756       89.63393       60.59250
C         42.31625       88.70415       59.51960
C         40.90382       88.19209       59.75707
O         40.60783       87.72626       60.84797
C         43.33668       87.52759       59.47403
C         44.77458       88.06517       59.26496
C         42.95999       86.52722       58.35690
C         45.85662       86.98908       59.38061
H         42.79856       89.24074       61.53697
H         42.34562       89.21253       58.52898
H         43.29691       86.99852       60.45229
H         45.00419       88.82333       60.04329
H         44.84507       88.55527       58.27357
H         41.93868       86.12316       58.51052
H         42.99987       87.01945       57.36098
H         43.63610       85.65025       58.35052
H         45.75838       86.21558       58.59368
H         46.85569       87.45892       59.26335
H         45.80813       86.50754       60.38079
N         39.99295       88.21291       58.74182
C         38.61284       87.75600       58.86693
C         38.39659       86.48062       58.07375
O         39.32588       85.98286       57.45974
C         37.67081       88.86274       58.35548
O         37.80188       90.02145       59.13199
H         40.29936       88.54110       57.81697
H         38.36471       87.52695       59.92518
H         36.61066       88.54272       58.41015
H         37.86917       89.08219       57.27853
H         38.54107       90.54834       58.73584
N         37.17090       85.88343       58.06794
C         36.85752       84.68194       57.30262
C         37.00354       84.93324       55.81332
O         37.69317       84.16845       55.15295
C         35.42836       84.22020       57.60925
H         36.42308       86.30468       58.63884
H         37.53491       83.85433       57.61370
H         34.68695       84.99923       57.33286
H         35.19989       83.28770       57.04960
H         35.33086       84.00393       58.69510
N         36.38918       85.99878       55.21585
C         36.48603       86.27051       53.78000
C         37.91494       86.51253       53.30366
O         38.14109       86.51029       52.10172
C         35.63973       87.49611       53.41547
H         35.82347       86.62865       55.80644
H         36.08374       85.38067       53.24753
H         36.03136       88.39643       53.94006
H         35.66809       87.68293       52.32103
H         34.58379       87.34019       53.72027
N         38.92241       86.74991       54.18466
C         40.31039       86.96904       53.80548
C         41.02640       85.63320       53.73931
O         41.72264       85.38189       52.76557
C         40.96977       87.94384       54.80506
C         40.26454       89.31741       54.75402
C         40.80970       90.29574       55.75392
O         39.99186       90.84643       56.66705
O         41.98137       90.62205       55.73476
H         38.69959       86.80739       55.18557
H         40.38085       87.45946       52.80731
H         42.04138       88.07731       54.54015
H         40.91774       87.51776       55.82805
H         39.17986       89.19496       54.95855
H         40.37184       89.74473       53.73495
N         40.84761       84.69531       54.71110
C         41.45968       83.38617       54.65540
H         42.56315       83.48082       54.71374
H         41.10552       82.76827       55.50929
H         41.17453       82.87022       53.71311
H         40.22045       84.89335       55.49896
Ca        41.76210       93.72867       56.78787
O         38.60039       93.50998       55.98650
H         38.05723       92.71869       56.23008
H         38.47015       93.60998       55.01030
O         39.77106       92.94260       58.98594
H         39.38379       92.61911       59.83743
H         39.22600       93.73435       58.74919

Ca 1.0



