%chk=holoCaM-CaMKII.loop1.water2.frame292.chk
%nprocshared=20
%mem=10GB
%nosave
#b3lyp/svp scf=(tight,noincore,xqc) Test 
#IOP(5/87=12) Density=Current Pop=(MK,readradii) iop(6/33=2) iop(6/42=6)

holoCaM-CaMKII.loop1.water2.frame292 

   0  1 
C         49.59937       31.71877       76.99367
C         51.00689       31.35973       76.60550
O         51.66935       30.69499       77.38176
H         49.01329       30.79208       77.16687
H         49.61121       32.32324       77.92459
H         49.09181       32.30938       76.20136
N         51.50827       31.75710       75.40179
C         52.85191       31.47630       74.87974
C         53.94596       32.16333       75.70501
O         54.44002       33.21347       75.31779
C         52.86728       31.92044       73.39971
C         54.16343       31.74214       72.66419
O         54.71991       30.52877       72.48473
O         54.65084       32.70474       72.09515
H         50.86132       32.28282       74.79220
H         53.03999       30.38027       74.87207
H         52.57578       32.99309       73.33959
H         52.09677       31.33004       72.85580
N         54.39345       31.58330       76.85485
C         55.42505       32.13429       77.73124
C         56.84226       32.10517       77.14794
O         57.74683       32.52438       77.85676
C         55.33328       31.46862       79.14163
C         55.53505       29.93932       79.28882
C         56.98773       29.46995       79.13654
C         57.17885       27.97453       79.47984
N         56.57105       27.07422       78.49940
H         53.94220       30.71559       77.14673
H         55.17441       33.20186       77.92251
H         54.29995       31.67375       79.50066
H         56.02000       31.98686       79.84602
H         54.85973       29.38783       78.61477
H         55.22887       29.68219       80.32659
H         57.60272       30.04981       79.85806
H         57.35759       29.67673       78.11989
H         56.75987       27.76649       80.48903
H         58.26904       27.75738       79.51617
H         56.70206       26.08500       78.81109
H         55.55107       27.25345       78.39963
H         57.04689       27.18326       77.57983
N         57.12404       31.66634       75.88097
C         58.48437       31.60116       75.33141
C         58.69962       32.55423       74.16737
O         59.83043       32.65747       73.70952
C         58.72877       30.19613       74.74535
C         58.40136       29.08808       75.68769
O         59.15095       28.81851       76.61233
O         57.24999       28.40302       75.51724
H         56.35627       31.35449       75.27558
H         59.23012       31.83923       76.12055
H         59.76234       30.07105       74.35403
H         58.05154       30.09172       73.87239
N         57.66129       33.18526       73.55242
C         57.81193       33.89484       72.29671
C         58.34116       32.96280       71.22474
O         59.30700       33.30982       70.56059
H         56.70572       33.09620       73.92061
H         58.47229       34.78052       72.41895
H         56.81158       34.25617       71.97457
N         57.75530       31.74613       71.02186
C         58.15531       30.80583       69.97812
C         57.00198       30.54704       69.00367
O         57.15472       29.72373       68.11239
C         58.74139       29.51491       70.60494
C         57.79226       28.63125       71.36274
O         56.60491       28.88453       71.42577
O         58.26255       27.52073       71.96116
H         56.97759       31.47263       71.63822
H         58.98737       31.23392       69.37763
H         59.56252       29.81241       71.29366
H         59.18542       28.89345       69.79797
N         55.84779       31.27923       69.06722
C         54.77729       31.20745       68.08796
C         53.80883       30.05698       68.25416
O         52.85102       30.03854       67.49161
H         55.76152       32.03403       69.75979
H         55.20177       31.22961       67.06063
H         54.16030       32.12549       68.20341
N         53.94715       29.07668       69.19550
C         52.96283       28.00497       69.36026
C         52.45865       27.89797       70.79052
O         53.00832       28.51639       71.69256
C         53.54432       26.64457       68.90011
C         53.84442       26.62660       67.39546
O         54.68325       26.29321       69.64740
H         54.77632       29.07621       69.80219
H         52.06621       28.21344       68.73553
H         52.78072       25.85395       69.06442
H         55.44123       26.85644       69.34114
H         54.21597       25.62271       67.10024
H         52.91585       26.83890       66.82295
H         54.61057       27.38492       67.13066
N         51.37851       27.11036       71.05045
C         50.82523       26.85161       72.37410
C         50.80718       25.34449       72.56803
O         50.28509       24.64802       71.70491
C         49.38540       27.43484       72.50249
C         49.38004       28.95494       72.19232
C         48.83414       27.16859       73.92263
C         47.98123       29.57865       72.20903
H         50.90684       26.65970       70.24929
H         51.44090       27.33575       73.16433
H         48.72868       26.92565       71.76232
H         49.78670       29.11590       71.17149
H         50.02958       29.49758       72.91430
H         47.78566       27.50860       74.02754
H         48.82394       26.08518       74.14821
H         49.45606       27.68427       74.68658
H         48.04909       30.64621       71.91278
H         47.31701       29.05256       71.49061
H         47.52915       29.54597       73.22059
N         51.30300       24.77072       73.69665
C         51.27091       23.33170       73.93689
C         50.14485       23.00210       74.89421
O         49.48873       23.90721       75.38035
C         52.63637       22.84971       74.49060
C         53.77995       23.14967       73.51898
O         52.89475       23.47953       75.71959
H         51.63867       25.38089       74.45307
H         51.04984       22.78528       72.99333
H         52.58400       21.74692       74.64169
H         53.57436       22.93150       76.19224
H         54.73846       22.77879       73.94152
H         53.60303       22.64648       72.54601
H         53.87111       24.24319       73.35505
N         49.83980       21.71485       75.19849
C         48.79853       21.36070       76.16183
C         49.14270       21.91431       77.53768
O         48.26663       22.44581       78.20437
C         48.58710       19.82940       76.22404
C         48.01300       19.29941       74.90075
O         49.79596       19.18120       76.52248
H         50.38086       20.96497       74.74082
H         47.82383       21.79957       75.84707
H         47.84078       19.62137       77.02624
H         49.57016       18.23807       76.73403
H         47.04485       19.79832       74.67891
H         48.70837       19.47850       74.05497
H         47.82648       18.20771       74.97807
N         50.42380       21.86211       77.99601
C         50.85569       22.37936       79.29221
C         50.53111       23.85922       79.41152
O         49.87468       24.24031       80.37102
C         52.37803       22.15668       79.49149
C         52.78581       20.69849       79.81158
C         52.40485       19.65649       78.75102
C         52.87630       18.25169       79.14239
N         52.44689       17.26631       78.14937
H         51.13292       21.46211       77.36650
H         50.32786       21.84545       80.11391
H         52.70652       22.74953       80.37432
H         52.93751       22.54048       78.61053
H         52.31570       20.40579       80.77568
H         53.88954       20.68178       79.94851
H         52.85596       19.93282       77.77260
H         51.30087       19.61522       78.66561
H         52.44565       17.97913       80.13171
H         53.98550       18.23840       79.22332
H         52.84763       17.49824       77.21151
H         52.78022       16.31871       78.43824
H         51.40273       17.24863       78.09058
N         50.95012       24.74850       78.46912
C         50.68577       26.18527       78.54798
C         49.19055       26.44949       78.61465
O         48.73484       27.01832       79.59684
C         51.31712       26.92475       77.34481
C         52.85096       26.81321       77.35748
C         53.47739       27.48610       76.17318
O         54.35467       28.48159       76.35780
O         53.23808       27.10642       75.04060
H         51.47125       24.37649       77.66355
H         51.15072       26.58728       79.47711
H         51.04590       28.00245       77.39059
H         50.91382       26.50556       76.39956
H         53.17804       25.75477       77.34549
H         53.22710       27.28298       78.29132
N         48.36747       26.03859       77.61315
C         46.92932       26.20192       77.62345
H         46.56700       26.71497       78.53806
H         46.62038       26.79136       76.73540
H         46.45137       25.20027       77.57084
H         48.77546       25.57142       76.80112
Ca        55.71036       29.19665       74.03359
O         56.20930       25.53882       75.57506
H         57.00127       25.15471       75.12147
H         55.57140       24.78561       75.64640
O         55.79698       25.99654       72.69121
H         55.88366       25.19111       72.12179
H         55.11457       26.55262       72.23940

Ca 1.0



