%chk=holoCaM.loop4.water3.frame347.chk
%nprocshared=20
%mem=10GB
%nosave
#b3lyp/svp scf=(tight,noincore,xqc) Test 
#IOP(5/87=12) Density=Current Pop=(MK,readradii) iop(6/33=2) iop(6/42=6)

holoCaM.loop4.water3.frame347 

   -3  1 
C        102.51322       49.84895       95.27674
C        101.28220       50.70097       95.20120
O        100.37763       50.50226       95.99918
H        103.39371       50.49521       95.47823
H        102.42652       49.10581       96.09842
H        102.66113       49.31095       94.31816
N        101.18093       51.67777       94.25408
C        100.03985       52.58336       94.16328
C        100.13108       53.44398       92.90517
O        101.13448       54.11307       92.69878
C         99.95721       53.47280       95.42166
C         98.77787       54.39305       95.36307
O         98.95696       55.72482       95.44352
O         97.65430       53.93624       95.23723
H        101.95302       51.77467       93.57638
H         99.11040       51.97412       94.10404
H        100.88950       54.06695       95.53260
H         99.83768       52.84821       96.33066
N         99.07875       53.48135       92.03622
C         99.05688       54.21416       90.76932
C         98.03802       55.36535       90.80845
O         98.03286       56.16921       89.88756
C         98.66288       53.19194       89.63843
C         99.62135       51.96991       89.61751
C         98.57082       53.82569       88.23227
C         99.10029       50.80481       88.76560
H         98.24057       52.93874       92.28001
H        100.05860       54.65741       90.57358
H         97.64819       52.80975       89.89864
H         99.72386       51.56039       90.64199
H        100.63159       52.27915       89.27320
H         98.24612       53.08771       87.47494
H         97.79467       54.61115       88.18165
H         99.55083       54.24927       87.92886
H         99.02511       51.06694       87.69249
H         99.79376       49.94246       88.84944
H         98.10086       50.48145       89.13164
N         97.08985       55.45781       91.78720
C         95.89287       56.29471       91.64596
C         95.41479       56.95702       92.93695
O         94.47865       57.74167       92.85834
C         94.76178       55.41687       91.04558
C         94.42690       54.19495       91.87726
O         95.04640       53.99037       93.05701
O         93.62939       53.37249       91.45828
H         97.10223       54.74975       92.52151
H         96.09598       57.11884       90.92650
H         95.10860       55.05799       90.05116
H         93.84360       56.02197       90.88500
N         95.96779       56.69187       94.15510
C         95.52350       57.31732       95.39287
C         94.09678       56.98963       95.82300
O         93.67493       57.55772       96.82018
H         96.76259       56.05094       94.22021
H         95.61646       58.41892       95.27665
H         96.20074       57.00694       96.21809
N         93.28013       56.13095       95.13924
C         91.86894       55.94552       95.48858
C         91.62138       55.33024       96.86633
O         90.50446       55.45506       97.35058
C         91.10857       55.16200       94.39169
C         91.60807       53.76374       94.13891
O         92.67374       53.27523       94.79277
O         91.05189       53.06829       93.30508
H         93.63783       55.66148       94.30096
H         91.41945       56.96398       95.50981
H         91.18717       55.72144       93.43442
H         90.03425       55.10602       94.67026
N         92.57770       54.63369       97.54355
C         92.38584       54.09121       98.88441
C         92.36620       52.57245       98.93397
O         92.36436       52.03694      100.03068
H         93.48765       54.47649       97.09437
H         91.43669       54.44414       99.34393
H         93.21676       54.46824       99.51834
N         92.29355       51.81514       97.80072
C         92.23110       50.35308       97.78898
C         93.37528       49.79224       96.95182
O         94.17915       50.56128       96.45372
C         90.86504       49.90887       97.22078
C         89.69879       50.40113       98.09555
C         88.37697       49.86497       97.60727
N         87.90768       50.17879       96.37720
O         87.71698       49.14129       98.33826
H         92.23463       52.28558       96.89365
H         92.32976       49.93818       98.81498
H         90.81849       48.79971       97.19908
H         90.74953       50.28383       96.18087
H         89.65941       51.51151       98.10165
H         89.86399       50.05132       99.13821
H         88.44205       50.79423       95.74793
H         87.00192       49.80692       96.05518
N         93.50519       48.44291       96.75730
C         94.57755       47.84686       95.96277
C         93.97810       47.14695       94.75173
O         93.24450       46.18318       94.91628
C         95.39405       46.85514       96.83980
C         96.47076       46.11752       96.02887
C         96.06690       47.58559       98.01146
H         92.81866       47.80640       97.18459
H         95.27235       48.63169       95.59616
H         94.70190       46.08958       97.25570
H         97.02276       45.40529       96.67779
H         96.00865       45.52265       95.21538
H         97.19262       46.83735       95.59381
H         96.78456       48.34450       97.63426
H         95.31244       48.09012       98.64998
H         96.62101       46.86096       98.64553
N         94.26046       47.59421       93.49140
C         93.76869       46.93641       92.28223
C         94.62266       45.71062       91.97094
O         95.63408       45.50189       92.61942
C         93.80984       47.95156       91.10834
C         93.22652       47.45926       89.80794
N         91.92842       47.08555       89.72730
O         93.92959       47.41594       88.80995
H         94.83451       48.44279       93.38959
H         92.70912       46.64093       92.44772
H         94.86398       48.27350       90.94619
H         93.21875       48.84300       91.39039
H         91.31387       47.12442       90.55312
H         91.53444       46.75821       88.83279
N         94.26582       44.85067       90.97776
C         95.07687       43.70811       90.54540
C         96.33138       44.10377       89.75359
O         97.08163       43.20502       89.39915
C         94.19993       42.70413       89.75523
C         93.41582       43.33994       88.62775
C         92.01229       43.38556       88.70723
C         94.05435       43.91318       87.51826
C         91.26537       44.01037       87.70804
C         93.30613       44.54076       86.51887
C         91.90794       44.59590       86.61396
O         91.17352       45.21068       85.66599
H         93.34928       45.00044       90.54060
H         95.42384       43.15422       91.44780
H         93.48155       42.27672       90.48929
H         94.80944       41.85415       89.37802
H         91.49299       42.95286       89.55377
H         95.12878       43.88423       87.42674
H         90.18716       44.04741       87.79178
H         93.81411       44.98897       85.67466
H         91.57932       45.64168       84.90139
N         96.65678       45.40199       89.47298
C         97.91038       45.79983       88.82623
C         98.90548       46.30474       89.86466
O         99.98310       46.74533       89.48922
C         97.64211       46.92062       87.79149
C         96.67424       46.55642       86.65658
C         97.20712       45.49276       85.73349
O         97.44331       44.24545       86.18053
O         97.40331       45.75203       84.55676
H         96.05579       46.15956       89.82418
H         98.40337       44.93911       88.33057
H         98.60160       47.25132       87.33417
H         97.21303       47.79307       88.33402
H         96.50214       47.48110       86.06143
H         95.69695       46.24344       87.07267
N         98.61029       46.25752       91.19348
C         99.45038       46.78161       92.25262
C         99.82925       45.64092       93.17828
O        101.01271       45.38227       93.34968
C         98.66003       47.87619       92.99518
C         98.23971       49.00656       92.03651
C         97.34175       50.01349       92.68914
O         96.87711       50.92305       92.02317
O         97.00458       49.90361       93.98708
H         97.72048       45.85492       91.49509
H        100.38003       47.23839       91.84433
H         99.26698       48.29240       93.82826
H         97.73500       47.42785       93.41572
H         97.66658       48.58308       91.18521
H         99.14604       49.51016       91.64136
N         98.86830       44.88789       93.78498
C         99.17738       43.75580       94.62765
H         99.77783       44.08145       95.50127
H         98.23458       43.29262       94.99290
H         99.73795       42.99420       94.04457
H         97.87655       45.10700       93.63365
Ca        95.16989       52.14104       94.32488
O         97.14447       50.91164       96.84694
H         97.65072       51.10045       97.67538
H         97.78908       51.09646       96.11846
O         93.14257       50.55364       93.25425
H         92.21422       50.60484       92.91518
H         93.70222       50.85076       92.49234
O         95.75466       53.46976       97.17913
H         95.86692       54.44827       97.07109
H         95.74660       53.32666       98.15748

Ca 1.0



