%chk=holoCaM-CaMKII.loop2.water2.frame252.chk
%nprocshared=20
%mem=10GB
%nosave
#b3lyp/svp scf=(tight,noincore,xqc) Test 
#IOP(5/87=12) Density=Current Pop=(MK,readradii) iop(6/33=2) iop(6/42=6)

holoCaM-CaMKII.loop2.water2.frame252 

   -2  1 
C         97.52992        7.94201       42.14032
C         97.34391        7.07176       40.93153
O         97.73244        5.91370       40.95480
H         96.53230        8.26970       42.50690
H         98.03701        7.38806       42.95836
H         98.12806        8.83849       41.87769
N         96.70190        7.56924       39.84167
C         96.34483        6.76004       38.68366
C         97.56687        6.29864       37.89584
O         98.33908        7.13895       37.45480
C         95.41725        7.57275       37.75365
C         94.74524        6.71582       36.71955
O         94.01025        7.22656       35.89078
O         94.89410        5.37997       36.73864
H         96.37794        8.54870       39.88279
H         95.76122        5.88996       39.05901
H         95.99943        8.38378       37.26318
H         94.60539        8.04035       38.35009
N         97.77071        4.97260       37.64317
C         98.85588        4.45615       36.81852
C         98.28513        3.60644       35.68723
O         98.79002        2.51567       35.45320
C         99.78370        3.60931       37.70574
H         97.10625        4.29357       38.02625
H         99.44577        5.28983       36.37999
H        100.17945        4.21608       38.54527
H         99.21796        2.74873       38.13061
H        100.64043        3.21273       37.11934
N         97.19703        4.01572       34.96712
C         96.55990        3.15361       33.97284
C         95.43615        3.84516       33.19237
O         95.57203        3.95565       31.98135
C         96.08505        1.79808       34.59536
C         95.50039        1.85296       36.00375
O         96.01854        1.19292       36.89064
O         94.42201        2.60569       36.29566
H         96.79083        4.94268       35.15688
H         97.31954        2.89920       33.19748
H         96.96762        1.12416       34.65373
H         95.38512        1.29719       33.89181
N         94.28230        4.26931       33.77855
C         93.13442        4.77685       33.04469
C         91.93283        3.84547       33.15172
O         90.89969        4.18105       32.59030
H         94.17216        4.20141       34.78543
H         93.36298        4.89840       31.96568
H         92.86991        5.77695       33.45181
N         91.98635        2.65397       33.82651
C         90.86852        1.70899       33.91716
C         89.66873        2.22010       34.73491
O         88.72376        1.45965       34.89630
C         91.36972        0.32902       34.44209
C         91.89955        0.31605       35.85034
N         92.37093       -0.82557       36.40014
O         91.90781        1.33693       36.50436
H         92.87964        2.36399       34.24393
H         90.50924        1.50255       32.88549
H         92.18306       -0.02577       33.77230
H         90.53843       -0.40575       34.38616
H         92.38119       -1.70537       35.86595
H         92.72740       -0.82828       37.36678
N         89.60053        3.48853       35.24301
C         88.44316        4.00601       35.95803
C         88.39287        3.60872       37.42005
O         87.45221        4.02070       38.08406
H         90.34976        4.16000       35.05659
H         87.50982        3.71471       35.42609
H         88.48915        5.11657       35.94564
N         89.35510        2.83175       37.99976
C         89.34303        2.43745       39.40286
C         90.67116        2.84106       40.10941
O         91.71698        1.95879       39.79437
C         89.05295        0.91555       39.51475
C         87.61234        0.59836       39.11278
O         89.92131        0.18106       38.68551
H         90.12171        2.48223       37.42412
H         88.53253        2.98024       39.93942
H         89.14647        0.58325       40.57389
H         90.62758       -0.21565       39.25751
H         86.90573        1.13793       39.78010
H         87.41509        0.89407       38.06124
H         87.42656       -0.49135       39.21812
N         90.46561        2.91439       41.57386
C         91.68553        2.89435       42.39611
C         92.11464        1.43825       42.63848
O         91.38514        0.70630       43.29379
C         91.42500        3.63873       43.74970
C         91.05709        5.14433       43.58975
C         92.66656        3.55665       44.65822
C         89.68112        5.43609       42.98266
H         89.75515        2.24085       41.94120
H         92.49108        3.44615       41.86389
H         90.59260        3.13589       44.29217
H         91.84412        5.67215       43.00835
H         91.02270        5.59947       44.60481
H         92.46628        4.05658       45.63049
H         92.91899        2.50471       44.89371
H         93.54124        4.04283       44.17731
H         88.88572        4.93975       43.57912
H         89.49917        6.53206       43.01004
H         89.60407        5.12946       41.92430
N         93.27936        0.94934       42.11580
C         93.74791       -0.42570       42.32631
C         94.28012       -0.60498       43.74033
O         94.29791        0.35504       44.49295
C         94.88371       -0.78405       41.33898
C         94.44163       -0.76984       39.90476
O         94.03448        0.37074       39.32948
O         94.47951       -1.79385       39.24169
H         93.83723        1.57304       41.52117
H         92.90764       -1.13326       42.14659
H         95.24177       -1.81196       41.55334
H         95.73860       -0.08893       41.46855
N         94.74155       -1.81516       44.17535
C         95.31226       -2.00596       45.50373
C         96.65184       -1.27243       45.65739
O         96.74382       -0.49019       46.59071
C         95.42055       -3.50559       45.87213
C         95.82842       -3.70132       47.31443
C         97.03932       -4.33795       47.63870
C         94.99029       -3.25490       48.35265
C         97.40365       -4.51848       48.97748
C         95.35739       -3.43948       49.68738
C         96.56322       -4.07017       50.00032
H         94.65507       -2.63401       43.55407
H         94.58646       -1.58334       46.23357
H         96.11969       -4.03798       45.21156
H         94.43096       -3.99069       45.73012
H         97.70287       -4.69087       46.85894
H         94.04824       -2.76984       48.13132
H         98.33747       -5.00721       49.22304
H         94.70419       -3.09468       50.47854
H         96.84454       -4.21256       51.03554
N         97.73324       -1.44097       44.81662
C         98.99599       -0.71136       44.95949
C         98.79261        0.78606       45.05985
O         99.38657        1.42669       45.91596
C         99.75863       -1.03477       43.66407
C         99.27038       -2.42579       43.35962
C         97.77762       -2.28892       43.63898
H         99.54900       -1.10607       45.84081
H         99.39514       -0.39605       42.82582
H        100.86143       -0.91592       43.73760
H         99.52002       -2.80581       42.34607
H         99.71001       -3.11349       44.11912
H         97.25359       -1.77071       42.80860
H         97.38375       -3.30561       43.76626
N         97.91413        1.39217       44.21679
C         97.60724        2.81738       44.21998
C         97.10895        3.23840       45.59201
O         97.65605        4.17093       46.16239
C         96.55772        3.14119       43.12938
C         97.06693        2.77166       41.71824
C         96.06838        3.06010       40.63912
O         96.29303        2.67770       39.50477
O         94.91896        3.70658       40.90265
H         97.40655        0.78074       43.56193
H         98.52519        3.39797       43.97663
H         96.32951        4.22954       43.15714
H         95.61833        2.58052       43.33501
H         97.28172        1.68915       41.65851
H         98.00987        3.31304       41.49267
N         96.10724        2.54701       46.20142
C         95.60941        2.83236       47.53048
H         94.51392        3.00320       47.48334
H         95.80320        1.95610       48.18642
H         96.09278        3.72273       47.98181
H         95.70017        1.74358       45.71680
Ca        93.23202        2.75959       38.24791
O         93.02437        5.63393       39.69338
H         93.48373        5.87622       40.53584
H         92.81595        6.50299       39.26852
O         91.78643        5.02492       37.03901
H         91.06665        5.69255       36.91554
H         92.25583        5.00011       36.16811

Ca 1.0



