%chk=holoCaM-CaMKII.loop4.water2.frame19.chk
%nprocshared=20
%mem=10GB
%nosave
#b3lyp/svp scf=(tight,noincore,xqc) Test 
#IOP(5/87=12) Density=Current Pop=(MK,readradii) iop(6/33=2) iop(6/42=6)

holoCaM-CaMKII.loop4.water2.frame19 

   -3  1 
C         29.19846       51.13929       41.25381
C         28.26024       51.29875       42.42004
O         28.41188       52.24259       43.17730
H         30.24000       51.02904       41.62290
H         28.95136       50.24001       40.64895
H         29.13686       52.02985       40.59468
N         27.25293       50.40665       42.61606
C         26.30400       50.45745       43.73007
C         27.02347       50.24429       45.06559
O         27.69504       49.23606       45.23188
C         25.22281       49.38794       43.47597
C         24.22161       49.18657       44.57591
O         23.39528       50.14852       45.03017
O         24.12471       48.07573       45.07219
H         27.15347       49.64955       41.92059
H         25.78817       51.44336       43.73078
H         25.72987       48.41079       43.30796
H         24.67668       49.65010       42.54322
N         26.90672       51.17494       46.06110
C         27.56984       51.11599       47.36726
C         26.58102       51.03631       48.53801
O         27.04438       50.89529       49.66144
C         28.48847       52.37335       47.57383
C         27.66013       53.69057       47.68077
C         29.53604       52.46286       46.45488
C         28.47374       54.95204       47.96515
H         26.31601       51.98036       45.87168
H         28.20081       50.20164       47.41357
H         29.03451       52.23892       48.53362
H         26.91922       53.59984       48.50334
H         27.11574       53.86597       46.74406
H         30.26190       53.27774       46.64859
H         30.10877       51.51539       46.38391
H         29.04278       52.66467       45.48652
H         27.77871       55.81519       48.05961
H         29.03830       54.84516       48.91376
H         29.16834       55.18059       47.13203
N         25.23205       51.18932       48.37161
C         24.27449       51.24334       49.48638
C         23.19763       50.16170       49.41336
O         22.50228       49.99457       50.40625
C         23.67051       52.67203       49.66262
C         23.00663       53.26786       48.44281
O         23.04328       52.58911       47.28936
O         22.52815       54.38898       48.48577
H         24.88538       51.31352       47.41812
H         24.81368       51.03204       50.43558
H         24.49808       53.35967       49.94292
H         22.94558       52.65739       50.50536
N         23.01858       49.36155       48.32081
C         22.15960       48.18497       48.32727
C         20.96625       48.24777       47.39944
O         20.35286       47.20478       47.21596
H         23.56318       49.52752       47.46733
H         21.76734       47.95695       49.34224
H         22.79429       47.32272       48.03050
N         20.50314       49.41002       46.85067
C         19.25810       49.43369       46.07702
C         19.38044       48.77640       44.70399
O         18.35070       48.46211       44.12399
C         18.62424       50.84498       46.04095
C         19.51532       51.94374       45.53495
O         19.86736       52.95057       46.35718
O         19.88983       51.96125       44.37947
H         20.97593       50.29540       47.08433
H         18.51555       48.82059       46.63770
H         18.35225       51.10657       47.08584
H         17.68534       50.82619       45.44534
N         20.58775       48.54099       44.11735
C         20.74760       47.86435       42.83650
C         20.99598       48.82096       41.68814
O         21.22035       48.34634       40.58295
H         21.43690       48.88097       44.57659
H         19.84352       47.27271       42.57946
H         21.59161       47.14608       42.92941
N         20.91873       50.17178       41.85261
C         21.08044       51.14273       40.77962
C         22.21336       52.10027       41.08764
O         22.82045       52.01876       42.14829
C         19.76881       51.93608       40.57264
C         18.62557       51.04887       40.06301
C         17.42324       51.87940       39.68483
N         16.75943       52.61329       40.60784
O         17.04593       51.89084       38.52224
H         20.71022       50.54165       42.78109
H         21.33863       50.63404       39.82454
H         19.93540       52.71832       39.80277
H         19.47571       52.44438       41.51775
H         18.34120       50.29534       40.82808
H         18.97843       50.51149       39.15490
H         17.05337       52.61550       41.59469
H         15.94369       53.18095       40.33216
N         22.57501       53.02096       40.15321
C         23.68171       53.95214       40.29848
C         23.16176       55.37123       40.07233
O         22.57628       55.61615       39.02508
C         24.78795       53.55562       39.28024
C         26.01239       54.47536       39.38245
C         25.24300       52.09892       39.51179
H         22.07619       53.02586       39.24936
H         24.13551       53.87434       41.30586
H         24.37723       53.62887       38.24864
H         25.73365       55.52924       39.17985
H         26.46755       54.40506       40.39243
H         26.77537       54.17461       38.63261
H         24.39826       51.38930       39.38464
H         26.02381       51.81260       38.77613
H         25.65559       51.97267       40.53673
N         23.37347       56.36573       40.98839
C         22.96830       57.75746       40.78990
C         24.20219       58.59430       40.51719
O         25.27544       58.02679       40.43357
C         22.11479       58.31158       41.96698
C         22.87923       58.85334       43.16162
N         23.60494       58.05844       43.97132
O         22.82002       60.04998       43.40629
H         23.93118       56.15359       41.81622
H         22.32027       57.82250       39.88931
H         21.35521       57.56443       42.28164
H         21.55068       59.17856       41.55889
H         23.64348       57.05007       43.81235
H         24.11370       58.45816       44.77513
N         24.13924       59.93861       40.33882
C         25.30669       60.74410       39.98656
C         26.43306       60.66236       41.01178
O         27.55566       60.39565       40.60732
C         24.87967       62.20012       39.71705
C         26.02506       63.08802       39.27780
C         26.85811       62.72255       38.20244
C         26.26006       64.30654       39.93633
C         27.90990       63.55217       37.80710
C         27.30183       65.14380       39.52577
C         28.13279       64.76660       38.46123
O         29.14241       65.56258       38.05591
H         23.21910       60.39947       40.41380
H         25.70292       60.34685       39.02754
H         24.38249       62.62218       40.61855
H         24.13136       62.18050       38.89517
H         26.70773       61.79382       37.66952
H         25.62782       64.61842       40.75828
H         28.54925       63.25138       36.98645
H         27.46064       66.08579       40.03484
H         29.32266       66.41718       38.47249
N         26.22404       60.87774       42.34097
C         27.30676       60.83999       43.32979
C         28.07697       59.52175       43.26453
O         29.29875       59.55341       43.21568
C         26.75348       61.14769       44.74101
C         27.87214       61.35260       45.77983
C         27.32559       61.87656       47.07955
O         27.50109       61.18329       48.22012
O         26.74745       62.95226       47.11235
H         25.26223       61.07380       42.65726
H         28.01715       61.66274       43.08999
H         26.05037       60.35481       45.08005
H         26.18907       62.10369       44.66479
H         28.60177       62.10148       45.40205
H         28.40748       60.39429       45.95226
N         27.41999       58.33303       43.16958
C         28.08971       57.03826       42.99932
C         28.95844       57.03222       41.74271
O         30.12755       56.68638       41.83617
C         27.04597       55.89143       42.96281
C         26.30996       55.79521       44.31595
C         25.23571       54.74453       44.36591
O         25.20144       53.87370       45.37557
O         24.32292       54.73270       43.56682
H         26.38982       58.36457       43.17025
H         28.75232       56.83884       43.87116
H         27.55657       54.92260       42.76750
H         26.32283       56.07655       42.13989
H         25.82980       56.75820       44.54990
H         27.04977       55.59714       45.11957
N         28.46228       57.44671       40.54524
C         29.22051       57.50455       39.31201
H         30.24801       57.10349       39.42509
H         28.69212       56.91917       38.52993
H         29.28696       58.56095       38.97169
H         27.50197       57.77996       40.50455
Ca        22.82033       52.32321       45.07568
O         21.07814       54.45779       43.05362
H         20.14439       54.65747       42.79267
H         21.39634       55.28654       43.49012
O         22.19993       55.91147       46.00836
H         21.59410       56.66039       46.23648
H         21.62751       55.10551       46.06246

Ca 1.0



