%chk=holoCaM-CaMKII.loop3.water2.frame360.chk
%nprocshared=20
%mem=10GB
%nosave
#b3lyp/svp scf=(tight,noincore,xqc) Test 
#IOP(5/87=12) Density=Current Pop=(MK,readradii) iop(6/33=2) iop(6/42=6)

holoCaM-CaMKII.loop3.water2.frame360 

   0  1 
C         47.40605       66.01502       16.09123
C         46.80261       66.30084       14.75028
O         47.37900       67.05666       13.98171
H         48.36421       66.56258       16.21701
H         46.70272       66.33114       16.88970
H         47.60067       64.92568       16.18480
N         45.62991       65.70818       14.39660
C         44.99755       65.91616       13.10016
C         44.58697       67.37680       12.95831
O         43.74350       67.83144       13.71941
C         43.78090       64.97428       12.97702
C         43.10742       64.98420       11.63997
O         42.03063       64.20458       11.45603
O         43.52287       65.66598       10.71910
H         45.19200       65.06183       15.07258
H         45.73275       65.63309       12.31253
H         43.03100       65.23886       13.75399
H         44.11608       63.92988       13.15997
N         45.18536       68.18176       12.03212
C         44.96749       69.62778       11.98331
C         43.82264       70.01931       11.04410
O         43.37135       71.15268       11.12072
C         46.28657       70.33040       11.57666
C         46.31174       71.83301       11.89583
C         47.63262       72.46881       11.44213
C         47.72949       73.92624       11.91329
N         48.96194       74.55218       11.43575
H         45.94785       67.77432       11.47727
H         44.72269       69.95822       13.01760
H         46.48107       70.15368       10.49639
H         47.12170       69.87308       12.15354
H         46.20244       71.94992       12.99662
H         45.48036       72.36818       11.39471
H         47.69093       72.42411       10.33187
H         48.49181       71.90423       11.86630
H         47.71509       73.94753       13.02647
H         46.85691       74.50649       11.54007
H         48.95709       74.59580       10.39074
H         49.01992       75.52524       11.81421
H         49.79545       74.01168       11.76304
N         43.32980       69.15237       10.10861
C         42.25680       69.48639        9.16150
C         41.04325       68.56877        9.30833
O         40.08443       68.75540        8.57147
C         42.80169       69.48876        7.71089
C         43.33535       68.16373        7.23947
O         43.91551       68.09208        6.16885
O         43.24117       67.07683        8.02469
H         43.75873       68.22161       10.04270
H         41.89169       70.51992        9.34907
H         43.63606       70.22454        7.67263
H         42.01683       69.83398        7.00322
N         40.98158       67.59812       10.26767
C         39.78887       66.80783       10.52895
C         39.41881       65.76710        9.48526
O         38.37863       65.15157        9.67190
H         41.76279       67.48232       10.92530
H         38.93523       67.50649       10.66783
H         39.92841       66.26028       11.48578
N         40.17869       65.48563        8.38417
C         39.74771       64.50481        7.37999
C         39.66214       63.06939        7.90360
O         39.15647       62.22580        7.17453
C         40.64755       64.53755        6.12458
C         42.01245       63.93851        6.36082
N         42.43027       62.87216        5.64236
O         42.74571       64.41157        7.21097
H         41.04270       66.01592        8.22777
H         38.73228       64.82115        7.05299
H         40.75164       65.58451        5.76816
H         40.14231       63.96259        5.31752
H         41.83448       62.44467        4.91857
H         43.36111       62.47335        5.81288
N         40.15073       62.70721        9.12591
C         40.06307       61.35798        9.65909
C         41.40627       60.72820        9.98105
O         41.38204       59.61371       10.47760
H         40.58846       63.41615        9.72249
H         39.53374       60.67710        8.95864
H         39.46922       61.39837       10.59798
N         42.60665       61.35685        9.76497
C         43.88652       60.72437       10.11545
C         45.04849       61.71772       10.17400
O         44.87336       62.89542        9.90831
C         44.15809       59.47701        9.22605
C         44.17029       59.70470        7.72923
C         45.20901       60.41061        7.09850
C         43.14534       59.15151        6.93839
C         45.22202       60.55084        5.70316
C         43.15379       59.30367        5.55035
C         44.19135       59.99893        4.92586
O         44.18527       60.12980        3.58355
H         42.60718       62.30959        9.38065
H         43.81025       60.36921       11.16703
H         43.36766       58.73521        9.45405
H         45.10323       58.97403        9.51580
H         46.01869       60.83325        7.67800
H         42.33496       58.59689        7.39496
H         46.03161       61.08799        5.22545
H         42.35465       58.87320        4.95926
H         44.88073       60.60431        3.10677
N         46.27422       61.28139       10.59504
C         47.42174       62.14790       10.84768
C         48.48206       61.87243        9.79946
O         48.87657       60.72790        9.63094
C         47.99774       61.86591       12.27610
C         46.93638       62.11833       13.37798
C         49.26334       62.71610       12.53795
C         47.38096       61.63321       14.76395
H         46.40381       60.27728       10.77979
H         47.13186       63.22128       10.79717
H         48.28682       60.79148       12.31603
H         46.01003       61.55659       13.13547
H         46.68382       63.19955       13.42279
H         49.72512       62.47659       13.51534
H         50.04608       62.50560       11.78251
H         49.02175       63.80031       12.50912
H         48.27465       62.17419       15.13262
H         46.56558       61.80236       15.49770
H         47.60306       60.54433       14.73245
N         49.04220       62.90966        9.11387
C         50.14288       62.75313        8.17063
C         51.41845       63.31819        8.77415
O         51.39580       63.78830        9.89849
C         49.77999       63.43004        6.83917
O         48.66371       62.80758        6.26570
H         48.72973       63.86838        9.32468
H         50.34830       61.67886        7.97327
H         50.62561       63.39955        6.11747
H         49.54465       64.50343        7.00789
H         48.98723       61.96395        5.85301
N         52.59444       63.24274        8.09225
C         53.88565       63.63589        8.65411
C         53.92838       65.09201        9.07615
O         54.27270       65.36322       10.21841
C         54.99741       63.36757        7.63601
H         52.57768       62.83536        7.14548
H         54.09623       63.00175        9.54487
H         55.98557       63.62566        8.07264
H         55.00507       62.29026        7.36494
H         54.84055       63.96628        6.71349
N         53.58726       66.08189        8.20625
C         53.63443       67.50473        8.53860
C         52.85138       67.80884        9.79723
O         53.36273       68.48272       10.68047
C         53.05210       68.32868        7.38131
H         53.25663       65.80466        7.26847
H         54.69038       67.82126        8.68694
H         53.63167       68.14853        6.45192
H         51.99027       68.05356        7.19588
H         53.09823       69.41331        7.61951
N         51.59241       67.32470        9.93446
C         50.72401       67.61228       11.06938
C         51.36991       67.15802       12.36693
O         51.53617       67.97753       13.26038
C         49.32720       66.99036       10.83000
C         48.71632       67.60213        9.54916
C         47.34463       67.12472        9.22968
O         46.44440       67.94074        9.11454
O         47.09370       65.83377        8.94878
H         51.24723       66.71543        9.17982
H         50.57036       68.71384       11.13664
H         48.66992       67.23192       11.69240
H         49.39955       65.88428       10.73925
H         49.32088       67.36968        8.65320
H         48.68906       68.70834        9.66387
N         51.82322       65.88601       12.51900
C         52.53190       65.45314       13.70389
H         53.43920       66.07955       13.85067
H         51.87613       65.53402       14.59511
H         52.85600       64.39694       13.58608
H         51.70334       65.21456       11.75455
Ca        44.97734       65.69069        8.26303
O         47.09778       66.61429        6.00023
H         47.16287       66.13605        5.13666
H         46.14514       66.87094        6.06509
O         45.68713       63.58527        6.49561
H         46.24074       63.77390        5.69761
H         46.33432       63.35878        7.20989

Ca 1.0



