%chk=holoCaM.loop2.water2.frame452.chk
%nprocshared=20
%mem=10GB
%nosave
#b3lyp/svp scf=(tight,noincore,xqc) Test 
#IOP(5/87=12) Density=Current Pop=(MK,readradii) iop(6/33=2) iop(6/42=6)

holoCaM.loop2.water2.frame452 

   -2  1 
C          9.29876       91.07624       55.44066
C          9.21293       92.56551       55.59468
O          9.91757       93.28172       54.89972
H          8.30985       90.69024       55.11225
H         10.05746       90.79709       54.67916
H          9.56665       90.60732       56.41007
N          8.35940       93.09660       56.51200
C          8.11853       94.52463       56.68719
C          8.70615       94.93330       58.02665
O          8.19027       94.53085       59.06046
C          6.58691       94.72160       56.60541
C          5.93492       96.06106       56.82961
O          4.75384       96.04792       57.12258
O          6.53353       97.25677       56.65858
H          7.84099       92.44315       57.12063
H          8.62350       95.08788       55.87811
H          6.16205       94.06451       57.39631
H          6.20937       94.32731       55.63700
N          9.87585       95.63527       58.07120
C         10.58962       95.90717       59.31245
C          9.93432       96.97586       60.17181
O         10.38214       97.13866       61.29909
C         12.03432       96.33537       59.00302
H         10.33599       95.87348       57.18389
H         10.64561       94.95657       59.88835
H         12.04599       97.28120       58.41812
H         12.61300       96.48678       59.93950
H         12.54567       95.54743       58.40870
N          8.94621       97.79778       59.70144
C          8.42122       98.91673       60.48757
C          6.89890       98.94548       60.62336
O          6.43331       99.64850       61.50994
C          9.00153      100.24107       59.95007
C          8.84011      100.40741       58.46400
O          9.82776      100.45404       57.74866
O          7.62267      100.49825       57.91020
H          8.64054       97.69958       58.72357
H          8.78475       98.83581       61.53593
H         10.09343      100.23377       60.16352
H          8.56140      101.10995       60.48467
N          6.05692       98.23739       59.81554
C          4.61240       98.17365       60.02505
C          3.78558       98.91612       58.98673
O          2.56807       98.83025       59.06593
H          6.44250       97.70030       59.03384
H          4.32926       98.59367       61.01356
H          4.32144       97.10079       60.03523
N          4.34738       99.70343       58.02316
C          3.56570      100.50137       57.07039
C          2.84268       99.67709       55.99421
O          2.19353      100.27087       55.14428
C          4.44695      101.59981       56.42456
C          5.58949      101.12746       55.55971
N          6.35886      102.04050       54.92511
O          5.83141       99.93843       55.42709
H          5.36566       99.80790       58.02455
H          2.79563      101.06402       57.64505
H          4.87082      102.23533       57.23323
H          3.79267      102.24759       55.80149
H          6.16983      103.04839       55.02653
H          7.13974      101.74411       54.32527
N          2.87622       98.31611       55.98441
C          2.15173       97.47911       55.04147
C          2.86499       97.23750       53.72278
O          2.34439       96.44372       52.95028
H          3.34392       97.83257       56.74913
H          1.12122       97.86936       54.88730
H          2.04473       96.47539       55.50720
N          4.03199       97.85867       53.37549
C          4.72847       97.61253       52.10777
C          6.20783       97.28486       52.32619
O          6.67591       97.34214       53.45625
C          4.57677       98.84802       51.18978
C          3.10318       99.10864       50.84966
O          5.12463       99.97783       51.81862
H          4.42266       98.56806       54.00627
H          4.27780       96.74091       51.58282
H          5.11745       98.64627       50.23729
H          5.23939      100.67118       51.11773
H          2.51756       99.34064       51.76436
H          3.02301       99.97214       50.15669
H          2.66063       98.21895       50.35259
N          7.00061       96.91678       51.27078
C          8.43740       96.63862       51.36963
C          9.23056       97.48188       50.36711
O          9.00197       97.38602       49.16936
C          8.75020       95.11829       51.20494
C          8.17799       94.49943       49.90019
C          8.25411       94.36367       52.44986
C          8.59808       93.04525       49.67703
H          6.55852       96.81441       50.34439
H          8.80682       96.91355       52.38292
H          9.85907       95.01383       51.19081
H          8.54806       95.06055       49.02207
H          7.06822       94.55080       49.90644
H          7.14844       94.39911       52.53009
H          8.58864       93.30698       52.44068
H          8.68854       94.82683       53.35953
H          8.19227       92.69177       48.70572
H          9.70480       92.96588       49.64829
H          8.19983       92.37710       50.46605
N         10.19464       98.34097       50.80679
C         11.02211       99.17412       49.92753
C         12.06706       98.30651       49.18404
O         12.08814       97.10213       49.39122
C         11.70153      100.25931       50.81250
C         12.19528      101.50599       50.11851
O         12.83972      102.44067       50.84169
O         11.93486      101.73829       48.94911
H         10.32602       98.42887       51.82551
H         10.34259       99.69618       49.21775
H         12.51614       99.78341       51.39891
H         10.95549      100.64912       51.53873
N         12.98323       98.85523       48.32750
C         14.04437       98.11526       47.63497
C         14.95361       97.35619       48.60283
O         15.06440       96.15529       48.40549
C         14.82853       99.06522       46.69058
C         16.12079       98.48173       46.15924
C         16.13819       97.29280       45.40987
C         17.33666       99.14106       46.42347
C         17.35168       96.77594       44.93844
C         18.54315       98.62395       45.94774
C         18.55174       97.44173       45.20610
H         12.94017       99.85980       48.15108
H         13.57457       97.34949       46.97586
H         15.05612      100.01251       47.21060
H         14.16537       99.34677       45.84475
H         15.21839       96.76475       45.19518
H         17.35454      100.05891       46.99806
H         17.36393       95.85852       44.36480
H         19.47121       99.14158       46.15556
H         19.48908       97.04307       44.83970
N         15.64574       97.91728       49.64519
C         16.42068       97.13384       50.60284
C         15.61750       95.99665       51.21015
O         16.08810       94.86872       51.24330
C         16.77456       98.14947       51.70188
C         16.89698       99.42389       50.91022
C         15.69336       99.32695       49.97517
H         17.34157       96.75623       50.10408
H         15.91093       98.30737       52.38752
H         17.65646       97.87194       52.31812
H         16.94628      100.35821       51.50806
H         17.82613       99.34093       50.29904
H         14.74068       99.61569       50.46595
H         15.91750       99.98445       49.12196
N         14.37970       96.25009       51.71750
C         13.55998       95.26245       52.41238
C         13.09451       94.11473       51.52385
O         12.58397       93.14040       52.05962
C         12.31945       95.95387       52.99683
C         12.68512       97.04784       54.01687
C         11.43635       97.69403       54.49911
O         11.25414       98.89611       54.39097
O         10.49574       96.90865       55.02812
H         14.02615       97.21401       51.63064
H         14.16489       94.83841       53.24507
H         11.67744       95.19589       53.50001
H         11.73554       96.40043       52.16191
H         13.34611       97.82848       53.58992
H         13.20406       96.57970       54.88022
N         13.19519       94.17092       50.16855
C         12.76945       93.11475       49.27578
H         11.97542       93.50324       48.60398
H         13.63351       92.79463       48.65650
H         12.37701       92.23084       49.81924
H         13.56679       95.01380       49.73168
Ca         8.55722       97.59475       55.82943
O          9.72325      101.46582       55.00479
H          9.78378      102.16153       55.70606
H          9.70345      101.97392       54.15578
O          8.42103       99.89829       52.78120
H          8.48963      100.69519       52.19839
H          7.45420       99.80954       52.96343

Ca 1.0



