%chk=holoCaM-CaMKII.loop2.water2.frame193.chk
%nprocshared=20
%mem=10GB
%nosave
#b3lyp/svp scf=(tight,noincore,xqc) Test 
#IOP(5/87=12) Density=Current Pop=(MK,readradii) iop(6/33=2) iop(6/42=6)

holoCaM-CaMKII.loop2.water2.frame193 

   -2  1 
C          7.18385       68.48116       25.57648
C          5.73683       68.88176       25.59652
O          4.93047       68.20487       26.21672
H          7.79317       69.29554       26.02660
H          7.35069       67.55482       26.16580
H          7.52036       68.31705       24.53221
N          5.34853       70.01985       24.96294
C          3.99753       70.56134       25.04625
C          2.97645       69.68928       24.32253
O          3.14110       69.46731       23.13040
C          3.97612       71.97626       24.42727
C          2.72136       72.72793       24.76134
O          2.54645       73.84394       24.30048
O          1.81792       72.21171       25.61831
H          6.07539       70.56619       24.47322
H          3.74735       70.65932       26.12559
H          4.10243       71.90240       23.32406
H          4.81904       72.57983       24.82465
N          1.87711       69.19621       24.97071
C          0.83252       68.42442       24.30140
C         -0.54998       69.05638       24.50689
O         -1.47818       68.33829       24.85016
C          0.87040       66.98254       24.83200
H          1.77190       69.37951       25.97539
H          1.02254       68.38774       23.20750
H          0.11308       66.35280       24.31780
H          1.87197       66.53638       24.65742
H          0.66554       66.97005       25.92569
N         -0.75636       70.39818       24.32208
C         -2.06855       71.06194       24.49334
C         -2.07279       72.59818       24.34697
O         -3.16610       73.14578       24.28926
C         -2.73625       70.72812       25.85466
C         -1.78043       70.85017       26.99717
O         -1.58755       69.88574       27.72142
O         -1.07053       71.97007       27.20194
H          0.06734       70.94161       24.04706
H         -2.73876       70.68267       23.69181
H         -3.13216       69.69253       25.85189
H         -3.62084       71.37727       26.02870
N         -0.95155       73.37207       24.31836
C         -0.97669       74.82067       24.20293
C         -1.68850       75.50169       25.35410
O         -2.60786       76.26569       25.09667
H         -0.02737       72.95185       24.37525
H         -1.44888       75.10604       23.23735
H          0.06972       75.19705       24.18835
N         -1.29023       75.30763       26.64608
C         -1.84753       76.05029       27.77985
C         -0.76409       76.88089       28.48578
O         -1.04765       77.45668       29.52707
C         -2.61743       75.11017       28.74440
C         -1.78856       74.14605       29.54609
N         -2.38067       73.31785       30.43691
O         -0.58069       74.11944       29.41615
H         -0.53235       74.63274       26.82880
H         -2.61823       76.76956       27.42687
H         -3.37071       74.53752       28.15966
H         -3.16616       75.74173       29.47640
H         -3.40225       73.32984       30.57052
H         -1.81445       72.66929       31.00306
N          0.48183       77.03814       27.93916
C          1.53497       77.87229       28.50536
C          2.28450       77.27701       29.69055
O          3.20345       77.93375       30.15819
H          0.67582       76.63857       27.01181
H          1.11708       78.87013       28.76469
H          2.30109       78.03354       27.71635
N          1.96609       76.06882       30.23795
C          2.63872       75.49275       31.40359
C          3.03634       74.03878       31.19071
O          2.22419       73.25611       30.72442
C          1.70042       75.53314       32.63111
C          1.42340       76.96528       33.08177
O          0.47876       74.89202       32.35845
H          1.16952       75.55844       29.85559
H          3.54404       76.07678       31.68300
H          2.21312       75.03833       33.49242
H          0.59596       73.92978       32.57277
H          0.89974       77.53673       32.28799
H          0.78944       76.94956       33.99299
H          2.37886       77.47653       33.33033
N          4.22730       73.58244       31.67378
C          4.55825       72.16033       31.80237
C          3.59165       71.49228       32.78123
O          3.36826       72.00835       33.86692
C          6.04447       71.98061       32.25332
C          6.96901       72.42217       31.08471
C          6.34759       70.51930       32.65497
C          8.46173       72.39858       31.41009
H          4.89000       74.27232       32.05988
H          4.46883       71.65504       30.81884
H          6.22893       72.61263       33.15050
H          6.71772       73.46070       30.78369
H          6.79335       71.76089       30.20650
H          5.71564       70.20864       33.51162
H          6.17150       69.83079       31.80405
H          7.39044       70.40074       33.00755
H          9.02982       72.74824       30.52208
H          8.67831       73.07388       32.26327
H          8.81637       71.37462       31.64217
N          3.05610       70.27851       32.46414
C          2.15455       69.49793       33.31196
C          2.90637       68.27902       33.81977
O          4.07931       68.15294       33.51606
C          0.95036       69.02020       32.47327
C          0.28072       70.11636       31.70778
O          1.02412       70.86924       30.87988
O         -0.92854       70.27062       31.76086
H          3.34129       69.84656       31.57638
H          1.80576       70.10037       34.17905
H          0.20988       68.48217       33.10404
H          1.32679       68.30937       31.70551
N          2.31777       67.33759       34.61087
C          3.06834       66.18083       35.09151
C          3.50619       65.23126       33.96967
O          4.69940       64.95981       33.91800
C          2.33531       65.44224       36.22926
C          3.20642       64.35108       36.83069
C          2.73805       63.02841       36.90492
C          4.49867       64.64174       37.32133
C          3.54397       62.02172       37.45001
C          5.30430       63.63017       37.84778
C          4.82752       62.32122       37.91407
H          1.34132       67.47098       34.91357
H          3.98427       66.58988       35.56580
H          1.36894       65.03140       35.86988
H          2.11161       66.17936       37.03078
H          1.74846       62.77541       36.54711
H          4.90082       65.64489       37.29116
H          3.17505       61.00658       37.51027
H          6.29986       63.86370       38.20455
H          5.45322       61.54063       38.32720
N          2.66541       64.68694       33.02584
C          3.11372       63.75572       31.99043
C          3.99419       64.40257       30.92594
O          4.41667       63.69933       30.01943
C          1.80751       63.21902       31.39934
C          0.90316       64.42444       31.51039
C          1.24264       64.94389       32.90952
H          3.67605       62.90236       32.43120
H          1.89412       62.76142       30.38934
H          1.39773       62.45033       32.09320
H          1.25552       65.16950       30.75919
H         -0.17608       64.23249       31.33446
H          0.97767       66.01762       32.93870
H          0.71061       64.37842       33.70333
N          4.35147       65.71337       30.99327
C          5.27362       66.35451       30.07268
C          6.63595       66.38214       30.73908
O          7.59148       65.88434       30.16026
C          4.75205       67.76048       29.71686
C          3.33970       67.68727       29.10358
C          2.75270       69.03023       28.78290
O          1.60766       69.09297       28.36884
O          3.45376       70.16492       28.96133
H          4.01262       66.29134       31.76813
H          5.36377       65.77784       29.12463
H          5.45264       68.25221       29.00740
H          4.71062       68.36908       30.64060
H          2.65293       67.20059       29.82747
H          3.36338       67.07791       28.17499
N          6.78022       66.86886       32.00228
C          8.02271       66.79966       32.73556
H          8.80406       67.39542       32.22358
H          7.87320       67.20012       33.76237
H          8.34707       65.74005       32.82437
H          5.96869       67.25698       32.48963
Ca         0.26061       71.66638       28.95819
O          4.71012       72.67841       27.70234
H          4.94729       72.38314       28.61507
H          5.45781       72.35666       27.14037
O          2.17136       74.48781       27.38669
H          2.53170       75.15718       26.75249
H          2.82340       74.47899       28.12957

Ca 1.0



