%chk=holoCaM-CaMKII.loop2.water2.frame458.chk
%nprocshared=20
%mem=10GB
%nosave
#b3lyp/svp scf=(tight,noincore,xqc) Test 
#IOP(5/87=12) Density=Current Pop=(MK,readradii) iop(6/33=2) iop(6/42=6)

holoCaM-CaMKII.loop2.water2.frame458 

   -2  1 
C         71.79941       60.41057       55.30114
C         73.14352       60.70085       55.91103
O         74.13169       60.12816       55.47755
H         70.99808       61.01700       55.77661
H         71.82097       60.66328       54.21966
H         71.54682       59.33782       55.42239
N         73.25310       61.61115       56.91526
C         74.52213       62.02983       57.49905
C         75.25150       60.88750       58.20032
O         74.68202       60.24981       59.07438
C         74.26710       63.18541       58.48179
C         75.54639       63.75083       59.00574
O         76.36419       64.21782       58.23073
O         75.79350       63.75047       60.32917
H         72.38949       62.07265       57.24205
H         75.15780       62.43283       56.67888
H         73.63270       62.83591       59.32440
H         73.73179       64.00362       57.95259
N         76.54765       60.61681       57.87238
C         77.36590       59.56427       58.46418
C         78.63382       60.11235       59.12988
O         79.44100       59.30270       59.56708
C         77.75524       58.57817       57.35429
H         76.98788       61.19841       57.15252
H         76.79325       58.99651       59.22932
H         78.36333       59.08158       56.57335
H         78.34648       57.73345       57.76901
H         76.84227       58.15869       56.88075
N         78.88190       61.45333       59.26655
C         80.13958       61.96312       59.83689
C         80.13363       63.43243       60.31421
O         81.14280       63.84264       60.87201
C         81.28366       61.74253       58.81983
C         80.98120       62.41039       57.50625
O         80.92314       61.75411       56.47888
O         80.75025       63.73199       57.46122
H         78.16404       62.10145       58.93846
H         80.35754       61.38801       60.76431
H         81.42999       60.65644       58.64126
H         82.23860       62.14207       59.22431
N         79.06898       64.27277       60.17967
C         79.02414       65.62939       60.70094
C         80.03840       66.54994       60.06532
O         80.81682       67.15298       60.79031
H         78.21773       63.95418       59.72824
H         79.15693       65.60630       61.80521
H         78.01725       66.05489       60.49442
N         80.06606       66.72850       58.71355
C         80.96261       67.66919       58.04094
C         80.20416       68.70136       57.20003
O         80.85226       69.48889       56.52372
C         82.02966       66.90759       57.22540
C         81.54786       66.08848       56.05702
N         82.44942       65.39817       55.32346
O         80.36316       66.02758       55.77019
H         79.42297       66.16669       58.13824
H         81.54493       68.24738       58.79177
H         82.57054       66.22876       57.92142
H         82.76487       67.64441       56.83562
H         83.45253       65.43038       55.55655
H         82.14886       64.82548       54.52581
N         78.84120       68.80678       57.23580
C         78.09232       69.83230       56.52169
C         77.96272       69.62714       55.01948
O         77.32880       70.46041       54.39342
H         78.30449       68.20399       57.87399
H         78.53670       70.82833       56.73841
H         77.05219       69.84063       56.91475
N         78.49493       68.54763       54.37553
C         78.33178       68.29772       52.93920
C         77.65389       66.94979       52.71200
O         77.41689       66.22811       53.66403
C         79.72343       68.31177       52.25061
C         80.36597       69.69782       52.30965
O         80.59343       67.39053       52.85801
H         79.03035       67.86199       54.91466
H         77.69123       69.07302       52.46717
H         79.62206       68.07045       51.16753
H         80.29602       66.48547       52.58450
H         80.53314       70.01414       53.36058
H         81.34688       69.67641       51.78750
H         79.71677       70.44273       51.80222
N         77.36264       66.53269       51.43961
C         76.90015       65.18049       51.13661
C         78.00702       64.50391       50.34952
O         78.34703       64.95579       49.26697
C         75.53570       65.16424       50.38146
C         74.43676       65.79926       51.27611
C         75.16642       63.71319       49.99549
C         73.02330       65.74741       50.68694
H         77.55446       67.16459       50.65027
H         76.74727       64.60652       52.07420
H         75.62241       65.75106       49.43987
H         74.69650       66.86453       51.45659
H         74.40423       65.28050       52.25651
H         75.94601       63.26420       49.34690
H         75.04687       63.08308       50.90163
H         74.23250       63.67789       49.39980
H         72.66678       64.69973       50.59664
H         72.31956       66.26510       51.37242
H         72.98926       66.23955       49.69341
N         78.63043       63.41204       50.87450
C         79.74626       62.73187       50.22990
C         79.23059       61.66365       49.29233
O         78.02870       61.46758       49.20307
C         80.65577       62.09353       51.30392
C         81.25169       63.12912       52.21439
O         80.45508       63.91636       52.95789
O         82.46290       63.25552       52.29180
H         78.31760       63.05951       51.78713
H         80.35113       63.46037       49.64565
H         81.48604       61.53917       50.81804
H         80.07056       61.37037       51.91364
N         80.10149       60.92803       48.54481
C         79.65656       59.85891       47.66451
C         78.98632       58.74156       48.46357
O         77.86773       58.39944       48.09953
C         80.81069       59.33474       46.77540
C         80.32472       58.29672       45.79348
C         79.39808       58.64014       44.79278
C         80.79708       56.97508       45.86715
C         78.94879       57.67572       43.88713
C         80.34180       56.01309       44.96128
C         79.42061       56.36344       43.97071
H         81.10793       61.14440       48.59514
H         78.91177       60.29162       46.95964
H         81.62729       58.90884       47.37884
H         81.25321       60.17937       46.20475
H         79.02448       59.65307       44.71116
H         81.50873       56.68618       46.63085
H         78.23695       57.94751       43.11861
H         80.70556       54.99612       45.02638
H         79.07067       55.61778       43.26917
N         79.54764       58.12630       49.56123
C         78.93272       56.99482       50.25092
C         77.62712       57.29366       50.97194
O         77.07551       56.37551       51.56185
C         79.99652       56.54419       51.26157
C         81.28123       56.98695       50.58575
C         80.86871       58.37008       50.10606
H         78.78306       56.19205       49.49357
H         79.90734       57.15397       52.19154
H         79.93881       55.47081       51.54335
H         82.17155       56.97593       51.24900
H         81.47161       56.33965       49.69883
H         80.76134       59.03503       50.99242
H         81.60566       58.82680       49.43532
N         77.06857       58.53881       50.96556
C         75.81057       58.85717       51.61904
C         74.74837       58.99691       50.55241
O         73.76563       58.26919       50.59356
C         75.93339       60.14614       52.45723
C         77.09940       60.09226       53.45518
C         77.06866       61.27783       54.41595
O         78.24622       61.31591       55.16845
O         76.96978       62.50317       53.75507
H         77.52424       59.30014       50.45296
H         75.50704       58.03578       52.30698
H         74.97339       60.29493       52.99655
H         76.09803       61.02343       51.79487
H         78.05998       60.08110       52.89530
H         77.03387       59.16958       54.07100
N         74.90595       59.87966       49.52820
C         73.95862       59.98186       48.44267
H         72.96506       60.28649       48.83041
H         74.30982       60.73774       47.70810
H         73.87620       59.00192       47.92447
H         75.74055       60.47972       49.49512
Ca        78.54422       63.56075       55.00455
O         76.77241       66.59247       56.37030
H         77.38515       66.17481       57.02382
H         76.12771       67.10353       56.91968
O         75.20169       64.60032       55.04545
H         74.34204       64.74832       55.51250
H         74.95584       64.10128       54.22789

Ca 1.0



