%chk=holoCaM.loop3.water2.frame73.chk
%nprocshared=20
%mem=10GB
%nosave
#b3lyp/svp scf=(tight,noincore,xqc) Test 
#IOP(5/87=12) Density=Current Pop=(MK,readradii) iop(6/33=2) iop(6/42=6)

holoCaM.loop3.water2.frame73 

   0  1 
C         97.50075        3.12452       21.61525
C         97.23642        2.92086       23.07277
O         98.15236        2.56464       23.80120
H         98.56209        2.90151       21.37587
H         96.84797        2.44920       21.02367
H         97.28327        4.17900       21.34594
N         95.98409        3.12322       23.56706
C         95.64601        2.94392       24.96858
C         94.65179        1.81125       25.06970
O         93.57326        1.90473       24.49774
C         95.08694        4.25631       25.51993
C         94.94972        4.26977       27.00843
O         95.30943        3.22724       27.78465
O         94.53641        5.28430       27.53980
H         95.23401        3.40742       22.91686
H         96.56202        2.69359       25.54814
H         94.10489        4.48144       25.04856
H         95.78314        5.07862       25.25895
N         94.99000        0.66766       25.72159
C         94.18132       -0.53923       25.63997
C         93.09864       -0.49947       26.69045
O         91.92876       -0.54049       26.33307
C         95.07357       -1.79988       25.72095
C         96.25994       -1.77484       24.72107
C         95.85405       -1.60061       23.24601
C         97.09587       -1.46534       22.35166
N         96.71901       -1.27987       20.95040
H         95.91969        0.61465       26.16354
H         93.68873       -0.58702       24.64361
H         94.44429       -2.69742       25.53395
H         95.50536       -1.88898       26.74093
H         96.83709       -2.71804       24.83168
H         96.94465       -0.94482       24.99238
H         95.26520       -0.66950       23.11627
H         95.23729       -2.46740       22.92443
H         97.73333       -2.37140       22.44687
H         97.68854       -0.58218       22.68358
H         97.58486       -1.15799       20.37676
H         96.19775       -2.11802       20.60535
H         96.12478       -0.42515       20.84493
N         93.41272       -0.36997       28.01306
C         92.38773       -0.24850       29.04919
C         91.50401        0.98659       28.86598
O         90.47029        1.05514       29.51658
C         92.98717       -0.28112       30.47479
C         93.91845        0.86112       30.78047
O         94.97376        0.97817       30.17946
O         93.61311        1.73442       31.75916
H         94.40801       -0.36642       28.27409
H         91.73131       -1.14241       28.95506
H         93.53906       -1.23331       30.62545
H         92.14955       -0.25899       31.20584
N         91.82131        1.98360       27.98788
C         90.93107        3.08691       27.68030
C         90.61468        3.95157       28.87269
O         89.44215        4.08077       29.19728
H         92.70849        1.95182       27.46800
H         89.98937        2.67637       27.25150
H         91.39951        3.72940       26.90311
N         91.60168        4.61723       29.54121
C         91.32414        5.56662       30.61970
C         91.70449        6.99678       30.22455
O         91.41036        7.90403       30.98918
C         91.95554        5.08805       31.95807
C         93.48353        5.25287       32.15840
N         93.77319        6.31947       33.11057
O         94.11859        5.56202       30.96722
H         92.57346        4.46769       29.24120
H         90.22757        5.58451       30.80152
H         91.70538        4.01185       32.07879
H         91.44236        5.60570       32.79780
H         93.44435        6.01941       34.05527
H         94.81034        6.44125       33.16763
N         92.34150        7.27382       29.04095
C         92.65749        8.61218       28.56305
C         94.15141        8.90176       28.49820
O         94.49792        9.98135       28.04008
H         92.60487        6.51103       28.40890
H         92.20348        9.38868       29.21557
H         92.21024        8.72587       27.55194
N         95.08244        8.05441       29.03249
C         96.48676        8.41120       29.22793
C         97.42550        7.27407       28.86032
O         97.17111        6.14882       29.26908
C         96.74667        8.72499       30.71709
C         95.88936        9.84786       31.24644
C         94.53408        9.63016       31.54979
C         96.44239       11.12016       31.46002
C         93.74454       10.66799       32.04864
C         95.64967       12.15980       31.95337
C         94.29717       11.93626       32.25029
O         93.52279       12.92895       32.73136
H         94.76221        7.18499       29.46244
H         96.75382        9.33300       28.66427
H         97.81871        9.01532       30.79516
H         96.60149        7.83259       31.36386
H         94.08922        8.65409       31.41049
H         97.48413       11.31134       31.23429
H         92.70299       10.48388       32.28055
H         96.08865       13.13745       32.10472
H         93.86782       13.81957       32.88697
N         98.59722        7.51846       28.19856
C         99.61341        6.48981       27.96944
C        100.93610        6.86629       28.64032
O        101.51564        7.89117       28.31123
C         99.79195        6.18792       26.44912
C        100.27367        7.40672       25.61488
C         98.47737        5.61034       25.89764
C        100.57086        7.06420       24.15547
H         98.79750        8.47971       27.88412
H         99.29021        5.52932       28.42523
H        100.56398        5.39441       26.36008
H        101.23077        7.78470       26.01714
H         99.52627        8.22690       25.65245
H         98.59265        5.25767       24.85452
H         98.16331        4.72875       26.49623
H         97.67311        6.37471       25.93566
H         99.65720        6.75335       23.61282
H        100.97887        7.96166       23.64466
H        101.32802        6.25453       24.10312
N        101.48783        6.05902       29.59365
C        102.82489        6.28274       30.15057
C        103.89239        6.01732       29.08945
O        103.54637        5.66339       27.97499
C        103.05136        5.35748       31.36499
O        102.98046        4.01164       30.98224
H        100.95436        5.23735       29.91149
H        102.90179        7.32967       30.51804
H        102.26785        5.57344       32.12517
H        104.04552        5.56077       31.82027
H        103.08780        3.48102       31.81394
N        105.22033        6.13187       29.37742
C        106.27671        5.76298       28.43388
C        106.18113        4.28946       28.06965
O        106.20244        3.96410       26.89112
C        107.65622        6.04240       29.04049
H        105.49277        6.46149       30.31549
H        106.19719        6.38344       27.51254
H        108.45259        5.77645       28.31120
H        107.75209        7.12339       29.27696
H        107.81166        5.45486       29.97002
N        106.03743        3.34805       29.04672
C        105.92312        1.91215       28.79629
C        104.81870        1.60039       27.80381
O        105.08250        0.92151       26.82110
C        105.65130        1.17318       30.11342
H        105.97944        3.67812       30.02297
H        106.88653        1.53347       28.38742
H        104.69815        1.51848       30.56969
H        105.58461        0.07864       29.93510
H        106.47575        1.36115       30.83355
N        103.56413        2.09828       27.98221
C        102.46303        1.86941       27.04886
C        102.85176        2.29603       25.64124
O        102.72109        1.49238       24.72844
C        101.19010        2.61577       27.50843
C        100.62595        2.04333       28.82183
C         99.35053        2.72941       29.22088
O         99.26364        3.35467       30.41001
O         98.37833        2.70151       28.48306
H        103.40364        2.69976       28.80208
H        102.21855        0.78359       27.01670
H        100.41057        2.49813       26.72288
H        101.41088        3.69697       27.63129
H        101.36533        2.15378       29.64194
H        100.41085        0.96122       28.69059
N        103.38390        3.52528       25.40276
C        103.82206        3.97628       24.09759
H        104.91733        4.16008       24.12256
H        103.60851        3.23646       23.29849
H        103.31035        4.92622       23.84494
H        103.52678        4.16361       26.18958
Ca        94.95097        3.75306       29.92650
O         97.06234        2.19094       32.32977
H         96.89686        2.60640       33.21320
H         97.71575        1.46992       32.51288
O         97.36813        5.26883       32.04436
H         97.28239        5.34159       33.02760
H         98.18046        5.79162       31.82622

Ca 1.0



