%chk=holoCaM.loop1.water2.frame145.chk
%nprocshared=20
%mem=10GB
%nosave
#b3lyp/svp scf=(tight,noincore,xqc) Test 
#IOP(5/87=12) Density=Current Pop=(MK,readradii) iop(6/33=2) iop(6/42=6)

holoCaM.loop1.water2.frame145 

   0  1 
C         -3.17118       76.09449       22.45285
C         -2.59512       74.74203       22.74188
O         -3.27652       73.91888       23.33289
H         -4.20662       76.17500       22.84798
H         -2.54364       76.87232       22.93624
H         -3.19027       76.26615       21.35648
N         -1.32839       74.44296       22.34048
C         -0.69254       73.15252       22.59180
C         -0.53154       72.95972       24.09985
O          0.28991       73.62223       24.71793
C          0.66817       73.12926       21.86650
C          1.52434       71.89138       21.91733
O          1.12804       70.68607       22.37845
O          2.65793       71.99434       21.48663
H         -0.80970       75.16678       21.81819
H         -1.34737       72.36970       22.15040
H          1.27321       73.95426       22.30201
H          0.50958       73.36425       20.79060
N         -1.37491       72.12457       24.76163
C         -1.39457       71.92583       26.20727
C         -0.25686       71.02925       26.69088
O         -0.13789       70.86213       27.89666
C         -2.73129       71.24923       26.62498
C         -3.98138       72.06566       26.23146
C         -5.29742       71.30536       26.45884
C         -5.61128       71.02903       27.93443
N         -6.88667       70.32291       28.06215
H         -2.10587       71.68793       24.20394
H         -1.33620       72.91897       26.70502
H         -2.73834       71.09447       27.72493
H         -2.78840       70.25403       26.13202
H         -3.96008       72.27864       25.14739
H         -3.99143       73.03832       26.76857
H         -5.26574       70.34712       25.89405
H         -6.12289       71.92141       26.03909
H         -5.66876       71.99535       28.48277
H         -4.81195       70.40829       28.39130
H         -7.65940       70.89064       27.64374
H         -6.83228       69.39632       27.57921
H         -7.09320       70.16472       29.07452
N          0.55780       70.35332       25.82470
C          1.52911       69.35088       26.25340
C          2.94114       69.66864       25.78713
O          3.83320       68.89156       26.10480
C          1.13927       67.96997       25.66587
C         -0.25875       67.53475       26.00921
O         -1.22005       68.16730       25.60268
O         -0.45978       66.40859       26.71873
H          0.43958       70.48149       24.81594
H          1.54439       69.26994       27.36206
H          1.85090       67.20419       26.04714
H          1.22168       67.99171       24.55735
N          3.23535       70.74069       24.99212
C          4.56538       70.94225       24.43832
C          4.95743       69.87338       23.42351
O          6.09115       69.90584       22.96685
H          2.51007       71.42938       24.74806
H          5.30024       70.96712       25.27167
H          4.60591       71.92241       23.91535
N          4.08112       68.90958       23.00239
C          4.41797       67.86289       22.03648
C          4.64977       68.38868       20.61249
O          4.94318       67.58787       19.73628
C          3.33192       66.75411       22.07185
C          1.94213       67.16404       21.66541
O          1.69845       68.28796       21.26056
O          0.94687       66.26367       21.75952
H          3.13371       68.89354       23.39724
H          5.35198       67.36718       22.38018
H          3.26869       66.38018       23.11770
H          3.64133       65.90430       21.42753
N          4.54447       69.71485       20.30908
C          4.73946       70.28724       18.98807
C          3.69883       69.80284       18.01455
O          4.06531       69.38216       16.93000
H          4.32023       70.38319       21.04781
H          5.76768       70.07640       18.61919
H          4.62726       71.39038       19.06800
N          2.37578       69.87418       18.33579
C          1.27069       69.41266       17.49097
C         -0.06925       69.81664       18.10962
O         -0.27076       69.64196       19.30413
C          1.22855       67.86811       17.25213
C          2.27022       67.27587       16.29211
O          1.22636       67.15901       18.46157
H          2.14415       70.29984       19.24705
H          1.33965       69.90499       16.49558
H          0.26254       67.66950       16.73457
H          2.13985       67.23160       18.84191
H          3.28173       67.23888       16.73376
H          2.00164       66.22186       16.06914
H          2.27884       67.84062       15.33470
N         -1.06061       70.29472       17.30760
C         -2.40670       70.64993       17.74892
C         -3.40829       69.66928       17.14454
O         -3.31682       69.33717       15.97023
C         -2.67178       72.15087       17.41227
C         -1.90812       73.00985       18.46371
C         -4.17209       72.50012       17.39148
C         -2.03840       74.52182       18.29289
H         -0.86613       70.38437       16.29776
H         -2.51541       70.54064       18.84995
H         -2.29760       72.36422       16.38610
H         -0.82690       72.75557       18.42652
H         -2.28214       72.76061       19.48338
H         -4.32707       73.55468       17.08745
H         -4.70390       71.88927       16.63202
H         -4.63755       72.34002       18.37700
H         -1.44494       75.02590       19.08592
H         -1.65580       74.83473       17.30054
H         -3.09015       74.85207       18.41613
N         -4.41941       69.18830       17.92776
C         -5.39971       68.18238       17.53593
C         -6.76482       68.82626       17.33400
O         -6.88066       70.04020       17.43333
C         -5.49298       67.09314       18.65049
C         -4.14267       66.46527       18.97348
O         -6.02190       67.66095       19.82455
H         -4.51664       69.56794       18.87663
H         -5.10350       67.69991       16.57805
H         -6.15882       66.27469       18.29719
H         -6.46356       66.93084       20.33290
H         -4.26824       65.67691       19.74722
H         -3.68792       66.01181       18.06874
H         -3.47752       67.24584       19.38351
N         -7.85655       68.05428       17.07710
C         -9.22201       68.56324       16.95343
C         -9.63205       69.35552       18.18701
O        -10.09952       70.47492       18.04203
C        -10.22264       67.39694       16.72950
C        -10.00812       66.72663       15.36586
O        -10.09662       66.44607       17.75857
H         -7.71361       67.03699       17.00224
H         -9.29129       69.24513       16.07580
H        -11.25293       67.82243       16.74010
H        -10.85478       65.81207       17.66949
H         -8.99688       66.27900       15.28290
H        -10.75853       65.92079       15.22238
H        -10.14015       67.47252       14.55394
N         -9.47424       68.83239       19.43311
C         -9.85918       69.52824       20.66031
C         -9.12502       70.84219       20.79175
O         -9.75553       71.87345       20.98397
C         -9.52547       68.65625       21.89618
C        -10.38538       67.38828       21.94028
C         -9.98688       66.47476       23.10553
C        -10.90924       65.24908       23.22909
N        -10.89854       64.40873       22.02867
H         -9.03548       67.90385       19.50706
H        -10.95370       69.72824       20.65949
H         -9.71968       69.23495       22.82760
H         -8.44616       68.38322       21.88109
H        -10.26013       66.82565       20.99614
H        -11.45099       67.68696       22.04363
H        -10.04699       67.04469       24.05863
H         -8.93499       66.13808       22.96899
H        -11.94917       65.58592       23.43551
H        -10.56591       64.64440       24.09718
H         -9.92162       64.11694       21.79656
H        -11.47536       63.55583       22.20780
H        -11.32547       64.91156       21.21843
N         -7.77037       70.85799       20.74147
C         -6.96930       72.04327       21.02041
C         -7.12068       73.10856       19.93681
O         -6.66328       74.22361       20.14590
C         -5.48979       71.63384       21.16226
C         -5.27817       70.53328       22.23173
C         -3.89553       69.97880       22.15366
O         -3.45470       69.55460       21.09907
O         -3.12937       69.92441       23.24345
H         -7.30339       69.96363       20.54019
H         -7.30676       72.46396       21.99421
H         -4.85120       72.51570       21.39277
H         -5.17915       71.23044       20.18338
H         -5.93762       69.66360       22.07330
H         -5.49234       70.93567       23.24528
N         -7.72180       72.83469       18.74309
C         -7.88585       73.82186       17.69951
H         -8.55153       74.63659       18.05259
H         -6.90069       74.23859       17.40308
H         -8.35035       73.34808       16.80673
H         -8.06282       71.88884       18.54448
Ca        -0.93466       69.90435       22.81217
O         -1.13855       66.94710       20.12186
H         -1.20728       67.28094       19.19347
H         -1.36057       65.98521       20.05124
O         -2.83035       66.76154       22.52183
H         -3.78583       66.77198       22.26195
H         -2.78830       66.14869       23.29795

Ca 1.0



