%chk=holoCaM.loop3.water3.frame410.chk
%nprocshared=20
%mem=10GB
%nosave
#b3lyp/svp scf=(tight,noincore,xqc) Test 
#IOP(5/87=12) Density=Current Pop=(MK,readradii) iop(6/33=2) iop(6/42=6)

holoCaM.loop3.water3.frame410 

   0  1 
C         59.55047       76.71158       29.62265
C         58.46719       76.80858       30.63704
O         57.44081       76.15858       30.48294
H         60.47146       76.32538       30.10532
H         59.24833       76.03004       28.80015
H         59.73617       77.72437       29.21062
N         58.62739       77.61525       31.72057
C         57.58965       77.73844       32.71695
C         56.33292       78.34075       32.07809
O         56.37704       79.44392       31.55330
C         58.07097       78.54699       33.93599
C         57.09675       78.37736       35.05368
O         56.11090       77.47647       34.92173
O         57.21189       79.01696       36.07717
H         59.51492       78.12577       31.84471
H         57.38351       76.70545       33.07515
H         58.18575       79.61660       33.65757
H         59.04766       78.16531       34.30604
N         55.19640       77.59813       32.03781
C         53.97487       77.92010       31.30682
C         53.29756       79.18412       31.81359
O         52.91396       80.01521       31.00220
C         53.05164       76.67787       31.36690
C         51.86271       76.74423       30.40431
C         51.21750       75.35692       30.23408
C         50.17748       75.38251       29.10626
N         49.64656       74.04615       28.83836
H         55.23007       76.68862       32.50558
H         54.24081       78.05663       30.23442
H         52.71452       76.46740       32.40286
H         53.67947       75.82013       31.03302
H         52.25022       77.05270       29.40998
H         51.11836       77.49425       30.74950
H         50.76077       75.01314       31.18869
H         52.00836       74.62890       29.94394
H         50.66509       75.75815       28.17862
H         49.34779       76.07273       29.37293
H         50.42482       73.39121       28.59170
H         49.13051       73.68562       29.67257
H         48.99072       74.10010       28.02548
N         53.15000       79.40067       33.14938
C         52.54135       80.59805       33.73375
C         53.55474       81.43505       34.51730
O         53.14454       82.42839       35.10421
C         51.28692       80.25142       34.59168
C         51.45272       79.27689       35.72905
O         50.51947       79.05781       36.48088
O         52.55667       78.54588       35.85865
H         53.54483       78.69098       33.77632
H         52.16257       81.27348       32.93292
H         50.50231       79.82938       33.92855
H         50.88710       81.19906       35.01410
N         54.89650       81.16187       34.51598
C         55.86469       82.01530       35.19313
C         55.80084       81.93687       36.70716
O         56.39827       82.79112       37.34703
H         55.26319       80.38065       33.95777
H         55.69257       83.06515       34.86231
H         56.89839       81.74455       34.89075
N         55.10630       80.95722       37.35981
C         54.93663       80.95289       38.81423
C         56.21140       80.60470       39.60237
O         56.14334       80.59721       40.82310
C         53.73364       80.04856       39.20311
C         54.04416       78.58345       39.38647
N         53.53230       77.90053       40.43767
O         54.75482       78.00402       38.58964
H         54.60968       80.24746       36.80187
H         54.60801       81.97959       39.08614
H         52.93613       80.17027       38.43567
H         53.29662       80.41392       40.15525
H         52.91069       78.36205       41.11732
H         53.73514       76.89708       40.55928
N         57.38595       80.26513       38.98427
C         58.60368       79.86772       39.68070
C         58.94275       78.39079       39.49508
O         59.94599       77.96535       40.04955
H         57.43969       80.27430       37.96547
H         58.50456       80.03478       40.77474
H         59.44402       80.50175       39.32317
N         58.11263       77.53064       38.82857
C         58.23732       76.07203       38.89037
C         57.91100       75.41002       37.56134
O         56.86647       75.70369       36.99834
C         57.21777       75.57368       39.93591
C         57.61441       76.04374       41.31246
C         56.91804       77.08425       41.94665
C         58.71151       75.45354       41.96190
C         57.32192       77.53577       43.20649
C         59.10428       75.89543       43.22711
C         58.41334       76.94337       43.85183
O         58.79037       77.38964       45.06670
H         57.24173       77.90122       38.43034
H         59.24983       75.75212       39.22154
H         57.14817       74.46350       39.94995
H         56.21296       75.96321       39.65935
H         56.08097       77.56241       41.45742
H         59.25843       74.64671       41.48899
H         56.78866       78.35069       43.67899
H         59.94811       75.42610       43.71716
H         59.54220       77.00916       45.54309
N         58.70239       74.40660       37.07041
C         58.34594       73.60440       35.89931
C         58.01305       72.19367       36.37353
O         58.87135       71.53724       36.94746
C         59.49157       73.57479       34.84274
C         59.90465       75.01068       34.43706
C         59.04218       72.76178       33.60926
C         61.00641       75.06780       33.37428
H         59.54695       74.13778       37.59792
H         57.44767       74.03438       35.40544
H         60.37782       73.07170       35.29030
H         60.27742       75.54583       35.33654
H         59.02274       75.55399       34.05290
H         59.87105       72.62786       32.88691
H         58.72382       71.73988       33.89410
H         58.19844       73.27343       33.10121
H         60.65875       74.64231       32.41024
H         61.27874       76.12611       33.18037
H         61.90872       74.51946       33.71764
N         56.76555       71.67553       36.18411
C         56.36698       70.34759       36.65010
C         56.81973       69.26732       35.68271
O         57.43445       69.58505       34.68128
C         54.83212       70.28905       36.80859
O         54.18273       70.35621       35.56767
H         56.05907       72.26837       35.72950
H         56.79202       70.17321       37.66204
H         54.49079       71.10331       37.48840
H         54.52683       69.34105       37.29588
H         53.81471       71.26892       35.47026
N         56.50084       67.96059       35.89752
C         56.71066       66.91508       34.89960
C         55.82308       67.16507       33.68697
O         56.31506       67.13486       32.56877
C         56.37406       65.54162       35.49133
H         56.03682       67.70691       36.78266
H         57.78211       66.87631       34.59869
H         55.31556       65.49211       35.82334
H         56.55038       64.74749       34.73318
H         57.03340       65.33890       36.36213
N         54.49253       67.42789       33.85108
C         53.55275       67.64374       32.74944
C         53.98365       68.76427       31.81061
O         53.73381       68.66258       30.61797
C         52.14806       67.91432       33.30570
H         54.12939       67.47373       34.81641
H         53.49857       66.70887       32.15052
H         51.41366       68.03935       32.48233
H         51.82309       67.05348       33.93084
H         52.14303       68.82845       33.93816
N         54.65398       69.85138       32.27324
C         55.22650       70.88218       31.41037
C         56.42952       70.30320       30.68552
O         56.47895       70.35003       29.46492
C         55.62566       72.09714       32.27228
C         54.36527       72.81150       32.79474
C         54.69620       73.82007       33.85010
O         55.51835       74.69115       33.63986
O         54.09032       73.75808       35.04882
H         54.82466       69.91762       33.28455
H         54.47960       71.24287       30.66688
H         56.20890       72.83251       31.67306
H         56.26048       71.75162       33.11631
H         53.65129       72.08472       33.23430
H         53.85771       73.31130       31.94038
N         57.42112       69.70205       31.39748
C         58.58993       69.07002       30.82649
H         59.50224       69.51891       31.27289
H         58.57461       67.98796       31.08084
H         58.63336       69.17649       29.72437
H         57.32716       69.65598       32.41203
Ca        54.32947       77.29151       36.15262
O         54.28559       74.29723       37.93359
H         54.21465       73.99858       38.87409
H         54.85796       73.61569       37.50225
O         52.14549       76.31241       37.94253
H         51.44688       77.01207       37.97092
H         51.85980       75.64691       38.61613
O         51.90163       75.83789       34.76841
H         51.81066       74.96683       34.30744
H         51.24459       75.79727       35.50652

Ca 1.0



