%chk=holoCaM.loop4.water3.frame72.chk
%nprocshared=20
%mem=10GB
%nosave
#b3lyp/svp scf=(tight,noincore,xqc) Test 
#IOP(5/87=12) Density=Current Pop=(MK,readradii) iop(6/33=2) iop(6/42=6)

holoCaM.loop4.water3.frame72 

   -3  1 
C         99.11003       18.68694       33.08298
C         98.18870       19.30456       34.09030
O         97.15668       18.71830       34.37892
H        100.08240       18.47035       33.57830
H         98.69648       17.72288       32.71359
H         99.27493       19.37242       32.22991
N         98.54670       20.45791       34.72710
C         97.84425       20.95236       35.90356
C         97.53591       22.44922       35.83594
O         98.45899       23.22558       35.63669
C         98.77850       20.69257       37.10298
C         98.09978       20.82633       38.42677
O         96.88687       20.92523       38.49527
O         98.82949       20.74380       39.55394
H         99.44020       20.90472       34.46948
H         96.90921       20.37401       36.06178
H         99.64689       21.38485       37.04822
H         99.17182       19.65448       37.06521
N         96.27612       22.92549       36.08735
C         95.96212       24.35763       36.20954
C         95.46025       24.73059       37.61769
O         95.24447       25.91534       37.84540
C         94.92551       24.80571       35.12453
C         93.51454       24.20079       35.36954
C         95.45929       24.48275       33.71688
C         92.44849       24.65390       34.36828
H         95.52337       22.24597       36.23932
H         96.88628       24.95242       36.04329
H         94.82400       25.91269       35.19239
H         93.15806       24.50591       36.37606
H         93.56162       23.10190       35.34845
H         95.54195       23.38559       33.56556
H         94.79781       24.90063       32.93093
H         96.45946       24.94310       33.57372
H         91.46748       24.21747       34.65429
H         92.35753       25.76051       34.36954
H         92.67907       24.29939       33.34316
N         95.18482       23.79351       38.57896
C         94.52449       24.09666       39.85650
C         95.20108       23.53333       41.11200
O         94.71998       23.82324       42.19807
C         93.07785       23.56289       39.80148
C         92.95209       22.06399       39.60574
O         94.03533       21.25754       39.48170
O         91.83581       21.58040       39.54464
H         95.33872       22.81126       38.34504
H         94.46602       25.19960       39.99273
H         92.55494       24.06515       38.95836
H         92.54763       23.84606       40.73728
N         96.28244       22.70918       41.06074
C         96.93212       22.14621       42.23807
C         96.10914       21.17822       43.09168
O         96.65766       20.74415       44.09506
H         96.70628       22.51145       40.15472
H         97.26418       22.98623       42.88562
H         97.84190       21.59827       41.91125
N         94.81808       20.80360       42.82154
C         94.04091       19.98022       43.76158
C         94.55223       18.54717       43.94359
O         94.08156       17.88296       44.85657
C         92.52932       19.96868       43.41839
C         92.15516       19.32726       42.11389
O         93.00326       18.90536       41.35328
O         90.85599       19.21863       41.78119
H         94.34894       21.17933       41.98940
H         94.11896       20.47983       44.75218
H         92.14960       21.01149       43.40264
H         91.99289       19.41897       44.22137
N         95.48361       17.99636       43.11809
C         96.02799       16.65463       43.28060
C         95.70373       15.73603       42.11883
O         96.27610       14.65588       42.07500
H         95.83481       18.55214       42.33449
H         95.67361       16.16193       44.21212
H         97.13229       16.75346       43.35758
N         94.77047       16.05813       41.17283
C         94.43438       15.19754       40.04727
C         94.54528       16.00033       38.72147
O         93.43297       16.84034       38.56151
C         93.01010       14.60955       40.22510
C         92.89180       13.72813       41.47764
C         91.52350       13.10014       41.58074
N         90.41287       13.86291       41.71504
O         91.41815       11.88300       41.54941
H         94.24491       16.92970       41.26695
H         95.15193       14.34833       39.99427
H         92.75863       13.98318       39.34283
H         92.26814       15.43514       40.28568
H         93.08341       14.32709       42.39340
H         93.65602       12.92208       41.41820
H         90.47611       14.89018       41.75447
H         89.48311       13.42261       41.78583
N         94.70930       15.09433       37.56613
C         94.30711       15.61646       36.24449
C         92.81520       15.39456       36.01868
O         92.37961       14.25641       36.13405
C         95.11590       14.87749       35.13866
C         94.76619       15.41112       33.73752
C         96.63136       15.01564       35.35867
H         94.33473       14.12999       37.72283
H         94.55563       16.69209       36.16958
H         94.86967       13.79254       35.17399
H         95.00718       16.49331       33.66080
H         95.34200       14.86242       32.96233
H         93.68909       15.26870       33.51349
H         96.92938       14.59896       36.34354
H         97.18320       14.45257       34.57589
H         96.94384       16.07785       35.30721
N         91.98881       16.41319       35.62458
C         90.57776       16.18795       35.29693
C         90.33923       16.33076       33.80320
O         91.26445       16.62383       33.05862
C         89.60960       17.05240       36.14951
C         89.34780       18.46775       35.66947
N         90.32407       19.39247       35.58277
O         88.20616       18.78429       35.36711
H         92.39583       17.34614       35.48355
H         90.31607       15.13854       35.55041
H         89.93676       17.03533       37.20780
H         88.61969       16.54535       36.13592
H         91.28916       19.16486       35.83310
H         90.10673       20.35023       35.26915
N         89.09969       16.09571       33.29846
C         88.77255       16.12968       31.87750
C         89.07633       17.47086       31.22667
O         89.56944       17.46995       30.10999
C         87.30746       15.70088       31.63767
C         86.27662       16.63724       32.22307
C         85.79217       17.71229       31.46089
C         85.77148       16.43417       33.51953
C         84.82845       18.57482       31.98911
C         84.81578       17.30441       34.04975
C         84.34179       18.37731       33.28902
O         83.42047       19.20875       33.81485
H         88.36203       15.83781       33.96533
H         89.39373       15.35948       31.36647
H         87.16057       14.68256       32.06071
H         87.12652       15.59904       30.54519
H         86.16147       17.88183       30.45703
H         86.11543       15.60548       34.12493
H         84.46669       19.39992       31.38933
H         84.44193       17.14196       35.05289
H         83.07037       19.96458       33.32225
N         88.80681       18.65023       31.85438
C         89.09308       19.95948       31.26167
C         90.58215       20.12851       30.97482
O         90.93125       20.67102       29.93598
C         88.60710       21.11678       32.16777
C         87.08517       21.08139       32.39599
C         86.61100       22.26677       33.18540
O         85.99570       22.08632       34.36991
O         86.75596       23.39692       32.74707
H         88.39197       18.60768       32.79486
H         88.53705       20.05710       30.30242
H         88.85664       22.07621       31.66087
H         89.13270       21.09310       33.14647
H         86.81162       20.16345       32.95162
H         86.55628       21.07843       31.41822
N         91.51356       19.68511       31.86413
C         92.96591       19.82852       31.69718
C         93.56116       19.00159       30.55350
O         94.77290       19.05489       30.38993
C         93.66442       19.45682       33.02578
C         93.28755       20.47206       34.11822
C         93.80636       20.11940       35.48041
O         94.48874       19.12710       35.65934
O         93.47312       20.88978       36.53130
H         91.16010       19.24511       32.72698
H         93.20712       20.89457       31.49010
H         94.77099       19.48227       32.91538
H         93.36644       18.42520       33.31806
H         92.19132       20.55362       34.19843
H         93.67391       21.46764       33.82210
N         92.80399       18.24335       29.71042
C         93.35113       17.46783       28.61424
H         94.45939       17.50913       28.57098
H         93.04456       16.40714       28.72787
H         92.94830       17.85407       27.65380
H         91.78992       18.21287       29.81784
Ca        93.94504       19.07244       38.81621
O         96.86668       18.34137       40.16373
H         97.53998       17.66489       40.42386
H         97.15509       19.16967       40.62082
O         96.91440       17.98211       37.53800
H         97.77471       17.51472       37.39919
H         96.44179       17.89786       36.67809
O         91.22223       18.80673       38.33640
H         91.00130       18.88145       39.29416
H         91.39338       19.73511       38.04397

Ca 1.0



