%chk=holoCaM.loop1.water2.frame70.chk
%nprocshared=20
%mem=10GB
%nosave
#b3lyp/svp scf=(tight,noincore,xqc) Test 
#IOP(5/87=12) Density=Current Pop=(MK,readradii) iop(6/33=2) iop(6/42=6)

holoCaM.loop1.water2.frame70 

   0  1 
C         72.96775       31.54923       32.82568
C         72.62498       32.99987       32.63742
O         73.38494       33.85422       33.06985
H         72.17546       30.88815       32.41206
H         73.92483       31.31255       32.31804
H         73.06090       31.33359       33.91079
N         71.47550       33.35017       32.00100
C         71.03049       34.72883       31.83416
C         70.78493       35.37294       33.19992
O         70.00372       34.85360       33.98344
C         69.76600       34.73505       30.95052
C         69.10079       36.07382       30.83462
O         67.94589       36.18156       31.21167
O         69.72894       37.15001       30.31575
H         70.88307       32.59245       31.62534
H         71.81350       35.29608       31.28986
H         69.02510       34.02548       31.38065
H         70.03320       34.37445       29.93185
N         71.43554       36.52650       33.52768
C         71.32494       37.24938       34.79021
C         70.69197       38.62737       34.60796
O         70.64519       39.37801       35.57279
C         72.70998       37.33836       35.49504
C         73.94019       37.83223       34.69800
C         73.82645       39.21866       34.03958
C         75.17127       39.61618       33.39078
N         75.07303       40.87228       32.64865
H         72.03602       36.94682       32.81966
H         70.65592       36.71150       35.49652
H         72.97267       36.31241       35.83469
H         72.60194       37.95891       36.41045
H         74.18432       37.07773       33.92614
H         74.79739       37.84718       35.40624
H         73.55026       39.98397       34.79570
H         73.03896       39.18179       33.26046
H         75.50968       38.82779       32.69053
H         75.94696       39.71498       34.18110
H         74.75743       41.64647       33.27536
H         76.01159       41.11177       32.25396
H         74.41094       40.76101       31.84989
N         70.11168       38.99999       33.43248
C         69.46090       40.28951       33.21862
C         67.95675       40.13242       33.13425
O         67.24585       40.95798       33.69023
C         69.94145       40.91321       31.89599
C         71.42222       41.10716       31.86805
O         72.08791       40.54606       31.01418
O         72.02141       41.90394       32.77325
H         70.09731       38.33122       32.65227
H         69.69047       41.00650       34.03945
H         69.45565       41.90377       31.75250
H         69.64483       40.25928       31.04518
N         67.40810       39.12641       32.39831
C         65.99234       39.01137       32.10080
C         65.73533       39.08146       30.60211
O         64.57629       39.20419       30.23397
H         68.03283       38.42005       32.00762
H         65.43589       39.84927       32.57296
H         65.58410       38.06345       32.51331
N         66.74615       39.01232       29.67672
C         66.55707       39.23003       28.24545
C         66.66442       37.95709       27.40813
O         66.51214       38.05065       26.19774
C         67.52342       40.34280       27.76920
C         68.99830       40.01405       27.82004
O         69.81018       40.86000       27.48276
O         69.44246       38.80876       28.21421
H         67.70671       38.82834       29.98118
H         65.52815       39.60858       28.06466
H         67.34961       41.23999       28.40322
H         67.27529       40.60961       26.72082
N         66.83484       36.72656       27.97216
C         66.75728       35.48462       27.21629
C         67.91007       35.19889       26.27161
O         67.85887       34.15375       25.64225
H         66.90873       36.64564       28.99353
H         65.80051       35.46774       26.64973
H         66.73100       34.63769       27.93713
N         68.98939       36.02556       26.13720
C         70.14597       35.68927       25.29934
C         71.37587       35.52924       26.17950
O         71.29127       35.81013       27.36009
C         70.36095       36.76254       24.20961
C         69.14601       36.86806       23.28126
O         70.59958       38.00992       24.80825
H         69.02601       36.89921       26.67330
H         69.98871       34.71028       24.79797
H         71.24447       36.45844       23.60022
H         71.07307       38.56728       24.13654
H         69.34290       37.62040       22.48822
H         68.94429       35.88978       22.79617
H         68.24413       37.18543       23.84703
N         72.53723       35.00045       25.68451
C         73.71512       34.76137       26.52100
C         74.95857       35.35385       25.85873
O         75.37481       34.86772       24.81807
C         73.84680       33.22676       26.80661
C         72.64277       32.76486       27.67974
C         75.17328       32.87568       27.50210
C         72.64220       31.27819       28.04148
H         72.56108       34.68660       24.70412
H         73.59704       35.25755       27.50789
H         73.83719       32.68246       25.83639
H         71.69728       32.96847       27.13579
H         72.62723       33.34499       28.63028
H         75.22564       33.34511       28.49968
H         75.28752       31.78005       27.61971
H         76.03462       33.18843       26.88531
H         73.50917       31.01573       28.68189
H         71.72787       31.04606       28.62770
H         72.65052       30.65563       27.12332
N         75.61290       36.40644       26.43969
C         76.88300       36.95357       25.95195
C         78.02079       35.96381       26.19287
O         77.79064       34.90515       26.74796
C         77.21984       38.30332       26.65908
C         76.22493       39.41954       26.30134
O         77.33913       38.13411       28.05183
H         75.18926       36.83104       27.27083
H         76.80160       37.15934       24.86215
H         78.19686       38.68116       26.29473
H         76.46090       38.32435       28.47172
H         76.21675       39.58518       25.20324
H         75.20174       39.16395       26.63481
H         76.53147       40.36624       26.79630
N         79.29447       36.26419       25.81874
C         80.45159       35.40833       26.09293
C         80.65615       35.19948       27.58791
O         80.80177       34.06492       28.02008
C         81.74456       36.02750       25.49593
C         81.70887       36.03398       23.96479
O         81.92634       37.33750       25.97433
H         79.45118       37.15682       25.32978
H         80.30880       34.41098       25.61882
H         82.60449       35.39011       25.81154
H         82.87159       37.58517       25.80178
H         81.60520       34.99505       23.58635
H         80.86675       36.64476       23.58049
H         82.65791       36.45548       23.57185
N         80.70639       36.26884       28.42587
C         81.01087       36.19024       29.85518
C         80.01486       35.29879       30.55925
O         80.41384       34.39090       31.27539
C         81.00986       37.60532       30.48485
C         82.07293       38.50488       29.82389
C         82.09762       39.92205       30.40289
C         82.98423       40.86539       29.56493
N         84.37974       40.42728       29.49698
H         80.50364       37.18734       28.01130
H         82.03041       35.76729       29.99929
H         81.23341       37.52339       31.57216
H         80.00452       38.06875       30.36961
H         81.86336       38.60749       28.74298
H         83.06965       38.03046       29.94496
H         82.43916       39.89342       31.46018
H         81.06755       40.34099       30.37848
H         82.94093       41.88169       30.01324
H         82.57304       40.93442       28.53203
H         84.45920       39.51462       28.99427
H         84.92813       41.13394       28.95566
H         84.78093       40.34586       30.45850
N         78.68812       35.48163       30.34477
C         77.64381       34.65418       30.93339
C         77.86226       33.18793       30.59729
O         77.90865       32.37293       31.50854
C         76.26211       35.14531       30.45840
C         75.99939       36.57549       30.94954
C         74.60320       37.00275       30.64848
O         74.10188       37.06514       29.40960
O         73.87264       37.28751       31.56780
H         78.41933       36.23161       29.69178
H         77.66677       34.75380       32.04228
H         75.48168       34.47347       30.88201
H         76.19953       35.12608       29.34974
H         76.70273       37.30434       30.50965
H         76.14044       36.59628       32.05301
N         78.06164       32.78639       29.31546
C         78.33968       31.41168       28.96289
H         79.25096       31.06167       29.49446
H         77.47815       30.76633       29.23206
H         78.52177       31.33251       27.86945
H         78.05647       33.48571       28.56899
Ca        71.85817       37.18097       29.57006
O         73.88701       40.93377       28.66592
H         73.71674       41.69619       29.27388
H         73.78981       41.31817       27.75899
O         72.59866       38.83156       26.76646
H         72.93903       38.05307       26.25824
H         72.76994       39.60554       26.17282

Ca 1.0



