%chk=holoCaM-CaMKII.loop4.water1.frame205.chk
%nprocshared=20
%mem=10GB
%nosave
#b3lyp/svp scf=(tight,noincore,xqc) Test 
#IOP(5/87=12) Density=Current Pop=(MK,readradii) iop(6/33=2) iop(6/42=6)

holoCaM-CaMKII.loop4.water1.frame205 

   -3  1 
C         25.85547       66.66630       27.11410
C         26.73230       66.41510       25.92119
O         26.28219       66.56178       24.79491
H         24.96498       66.00785       27.06596
H         26.39415       66.44391       28.06207
H         25.54129       67.72930       27.13744
N         28.02353       66.05043       26.11271
C         28.96753       65.75838       25.04534
C         28.59821       64.42853       24.38091
O         28.47595       63.44130       25.09186
C         30.36720       65.74929       25.68849
C         31.48870       65.53219       24.75207
O         32.62228       65.49935       25.18452
O         31.26827       65.29455       23.46158
H         28.36231       65.99993       27.08673
H         28.96273       66.58839       24.31106
H         30.41819       64.97351       26.47740
H         30.53693       66.75064       26.14853
N         28.40983       64.32693       23.02687
C         27.91959       63.11392       22.35896
C         29.04401       62.33864       21.66022
O         28.83286       61.17669       21.34108
C         26.79884       63.50096       21.32828
C         25.69149       64.41411       21.91823
C         26.16256       62.28566       20.62134
C         24.87876       63.79787       23.05505
H         28.59418       65.15171       22.44407
H         27.50458       62.42818       23.13004
H         27.28379       64.10967       20.53121
H         24.99158       64.69348       21.09907
H         26.14286       65.35972       22.28437
H         25.38747       62.62622       19.90123
H         26.90691       61.72701       20.02144
H         25.69702       61.59077       21.34949
H         24.36729       62.87094       22.72609
H         25.52862       63.57941       23.92624
H         24.09937       64.52294       23.37268
N         30.24415       62.91304       21.36006
C         31.32388       62.22713       20.64419
C         32.63151       62.17934       21.43844
O         33.60769       61.65399       20.92105
C         31.49058       62.81033       19.21321
C         31.71785       64.29369       19.05471
O         31.72951       65.12595       20.09946
O         31.86216       64.75792       17.93715
H         30.38498       63.89525       21.61155
H         31.06237       61.15811       20.47767
H         30.56390       62.57485       18.64707
H         32.33012       62.27779       18.71558
N         32.70918       62.61638       22.72615
C         33.88568       62.45787       23.56421
C         35.08943       63.25379       23.11271
O         36.15529       62.67747       22.95088
H         31.87336       62.99920       23.18227
H         34.14199       61.37939       23.64725
H         33.63358       62.81454       24.58828
N         35.00921       64.60685       23.00667
C         36.16814       65.48710       22.87411
C         36.34519       66.30791       24.15993
O         37.17470       67.20645       24.18574
C         36.04338       66.38719       21.62064
C         34.77913       67.19244       21.53695
O         34.21200       67.32238       20.46345
O         34.28295       67.80371       22.62429
H         34.08815       65.04929       23.14118
H         37.11105       64.91192       22.74975
H         36.12142       65.76683       20.70132
H         36.90217       67.09161       21.60478
N         35.61277       66.02906       25.27860
C         35.65353       66.78600       26.51603
C         35.18595       68.20519       26.31211
O         35.78901       69.10841       26.86767
H         34.97510       65.22557       25.27991
H         36.66404       66.75392       26.97644
H         34.94277       66.30684       27.22621
N         34.07188       68.45377       25.56890
C         33.48641       69.77181       25.32700
C         32.08059       69.62951       24.76366
O         31.78478       68.65687       24.08134
C         34.29918       70.65293       24.33144
C         35.63323       71.18287       24.86708
C         36.26873       72.16124       23.91545
N         36.71553       71.75970       22.70289
O         36.40118       73.32821       24.25279
H         33.58785       67.63418       25.19019
H         33.37194       70.28648       26.30447
H         33.68429       71.55149       24.10201
H         34.45609       70.11470       23.37397
H         36.36308       70.36865       25.02268
H         35.42589       71.69913       25.83029
H         36.63509       70.77534       22.40938
H         37.16283       72.43327       22.06342
N         31.18259       70.63853       24.94665
C         29.85466       70.62753       24.35615
C         29.87099       71.61406       23.21207
O         30.02619       72.80559       23.44455
C         28.76035       70.99158       25.39944
C         27.35734       70.94940       24.76914
C         28.79358       70.05937       26.61808
H         31.47831       71.47750       25.46871
H         29.62440       69.61574       23.95513
H         28.94844       72.02635       25.76437
H         26.59125       71.26010       25.51055
H         27.28733       71.64774       23.91208
H         27.11759       69.92378       24.41540
H         28.01551       70.36980       27.34973
H         28.60364       69.00743       26.31824
H         29.77660       70.11990       27.13003
N         29.76298       71.17002       21.93107
C         29.74952       72.06610       20.78146
C         28.37950       72.71641       20.67052
O         27.50847       72.39282       21.45730
C         30.10486       71.23969       19.52093
C         30.22384       72.03359       18.24462
N         31.10643       73.05459       18.13639
O         29.51475       71.74726       17.29229
H         29.70188       70.15372       21.76719
H         30.53564       72.84001       20.91779
H         29.34044       70.44179       19.39010
H         31.08990       70.75449       19.69545
H         31.71620       73.31528       18.92422
H         31.17042       73.59651       17.26173
N         28.10833       73.64031       19.71214
C         26.78011       74.19534       19.48678
C         25.80491       73.10202       19.04512
O         24.71730       73.02301       19.59906
C         26.85140       75.27183       18.39046
C         25.52408       75.96565       18.24121
C         25.10259       76.90179       19.20112
C         24.69164       75.66982       17.15297
C         23.86666       77.53965       19.06599
C         23.44913       76.29486       17.02922
C         23.03377       77.23539       17.98384
O         21.83862       77.84819       17.87268
H         28.87445       73.96378       19.10954
H         26.42234       74.68205       20.42332
H         27.15509       74.78234       17.43947
H         27.62383       76.03602       18.62915
H         25.73546       77.14496       20.04665
H         24.99646       74.93941       16.41378
H         23.55514       78.26772       19.80484
H         22.81063       76.04487       16.19224
H         21.23098       77.65791       17.14392
N         26.14164       72.21764       18.05162
C         25.24552       71.16330       17.55352
C         24.82467       70.16690       18.63108
O         23.95755       69.34539       18.36609
C         25.90012       70.33676       16.41909
C         26.32043       71.15563       15.19205
C         26.85701       70.24642       14.12103
O         26.14111       69.38999       13.62540
O         28.13004       70.37225       13.70045
H         27.07596       72.31070       17.63507
H         24.32991       71.66010       17.16326
H         25.16335       69.57277       16.08172
H         26.79201       69.80265       16.82030
H         27.11018       71.88358       15.46838
H         25.44901       71.71230       14.78827
N         25.39239       70.17972       19.86289
C         25.04272       69.28596       20.95083
C         24.19937       70.05647       21.95324
O         23.17186       69.54311       22.37239
C         26.34138       68.71378       21.54958
C         27.09834       67.88378       20.49175
C         28.41319       67.36017       20.97927
O         29.06372       66.61554       20.26485
O         28.89653       67.71086       22.18367
H         26.13350       70.85720       20.06208
H         24.42668       68.42766       20.59771
H         26.09761       68.05812       22.41400
H         26.98321       69.54800       21.90957
H         27.31205       68.49555       19.58883
H         26.45891       67.02428       20.19622
N         24.51066       71.34023       22.29036
C         23.68755       72.19196       23.11921
H         22.79021       71.66878       23.50552
H         24.29097       72.56795       23.97016
H         23.35169       73.06255       22.51289
H         25.34305       71.77758       21.89579
Ca        31.77735       66.59538       21.75377
O         31.02683       68.08222       18.79639
H         31.20521       67.28121       18.24514
H         30.35177       68.58461       18.27621

Ca 1.0



