%chk=holoCaM-CaMKII.loop3.water2.frame213.chk
%nprocshared=20
%mem=10GB
%nosave
#b3lyp/svp scf=(tight,noincore,xqc) Test 
#IOP(5/87=12) Density=Current Pop=(MK,readradii) iop(6/33=2) iop(6/42=6)

holoCaM-CaMKII.loop3.water2.frame213 

   0  1 
C         33.23834       59.91577       26.76489
C         33.66661       59.76878       25.33586
O         34.03473       60.75593       24.71899
H         32.18849       59.57346       26.87716
H         33.89569       59.29700       27.41182
H         33.30935       60.97476       27.09296
N         33.65691       58.53902       24.75120
C         34.09386       58.28601       23.37895
C         33.16622       59.02262       22.40932
O         32.05704       58.56153       22.17709
C         34.08371       56.74661       23.15995
C         34.59438       56.11809       21.88422
O         34.45253       54.91214       21.76456
O         35.21453       56.78221       20.88859
H         33.35364       57.74312       25.33514
H         35.13619       58.66023       23.29813
H         33.03045       56.41102       23.28318
H         34.67851       56.28230       23.97737
N         33.52121       60.23741       21.89222
C         32.65119       61.02416       21.01951
C         32.48639       60.33350       19.67681
O         31.37823       59.92499       19.35784
C         33.19254       62.46605       20.81303
C         33.19923       63.28794       22.11665
C         33.83315       64.68580       21.96011
C         33.15861       65.62535       20.94353
N         31.77241       65.93077       21.29668
H         34.41757       60.63981       22.18774
H         31.65262       61.11682       21.50443
H         32.53900       62.98552       20.07949
H         34.22232       62.43232       20.39976
H         33.79752       62.75496       22.88376
H         32.16244       63.37897       22.50402
H         34.89065       64.56204       21.64948
H         33.83236       65.18170       22.95555
H         33.20290       65.19197       19.92172
H         33.73869       66.57540       20.92278
H         31.18434       65.06871       21.25449
H         31.72807       66.35085       22.25344
H         31.39404       66.62176       20.60882
N         33.54133       60.19860       18.81885
C         33.41054       59.59066       17.49584
C         33.23022       58.07315       17.53863
O         33.07690       57.48723       16.47521
C         34.57562       60.01343       16.56402
C         35.95834       59.60283       16.98790
O         36.91233       59.90224       16.28814
O         36.16825       58.93034       18.12964
H         34.44640       60.60927       19.08790
H         32.50527       60.01970       17.01023
H         34.56570       61.12215       16.47913
H         34.38686       59.59829       15.54980
N         33.19467       57.36525       18.70796
C         32.93295       55.93407       18.74596
C         34.05041       55.07258       18.18696
O         33.83005       53.87515       18.07038
H         33.28028       57.85075       19.60939
H         31.99589       55.73737       18.18080
H         32.75349       55.61243       19.79310
N         35.26866       55.57879       17.82512
C         36.30552       54.75429       17.20247
C         36.81763       53.62661       18.09523
O         37.53300       52.77054       17.59330
C         37.48308       55.62116       16.69541
C         38.37780       56.15688       17.79367
N         39.70140       55.86961       17.79490
O         37.91398       56.85656       18.68028
H         35.44282       56.58306       17.94022
H         35.83101       54.29803       16.30570
H         37.07773       56.46970       16.10268
H         38.09830       55.00344       16.00656
H         40.11962       55.28699       17.05515
H         40.31752       56.22982       18.53700
N         36.52018       53.57621       19.42502
C         36.95306       52.51665       20.31662
C         37.89006       53.01814       21.39076
O         38.22340       52.22544       22.26021
H         35.96635       54.32928       19.84894
H         37.47387       51.69891       19.77161
H         36.04931       52.08132       20.79384
N         38.41736       54.28273       21.36820
C         39.40525       54.73881       22.33858
C         38.98389       56.06058       22.96740
O         38.02145       56.67094       22.52305
C         40.79048       54.89745       21.66218
C         41.26890       53.64135       20.95539
C         40.64719       53.19907       19.77118
C         42.35804       52.90874       21.45816
C         41.08986       52.04931       19.11634
C         42.79922       51.75313       20.80166
C         42.16402       51.31975       19.62844
O         42.57697       50.20962       18.98427
H         38.18020       54.92435       20.59904
H         39.50990       53.98896       23.15316
H         41.51946       55.17768       22.45333
H         40.77470       55.72495       20.92225
H         39.82130       53.74238       19.34029
H         42.86245       53.22480       22.36230
H         40.59600       51.72783       18.20737
H         43.63468       51.19555       21.20511
H         43.31618       49.67308       19.30330
N         39.67518       56.54864       24.03707
C         39.39355       57.82377       24.69268
C         40.68355       58.63099       24.74641
O         41.68854       58.11944       25.22020
C         38.80065       57.58566       26.11272
C         37.44184       56.84100       25.98087
C         38.61346       58.93128       26.85051
C         36.77935       56.49174       27.31403
H         40.43378       55.96990       24.42941
H         38.62738       58.40259       24.13118
H         39.50827       56.96097       26.70191
H         37.60055       55.88300       25.44228
H         36.73146       57.45729       25.38526
H         37.91039       59.59036       26.29662
H         38.23438       58.77942       27.87996
H         39.58200       59.46069       26.96213
H         35.84132       55.93013       27.11782
H         37.45474       55.85675       27.92451
H         36.50326       57.40093       27.88464
N         40.70358       59.92624       24.32152
C         41.88843       60.77720       24.34740
C         41.72495       61.88212       25.37823
O         40.70096       61.93979       26.03681
C         42.12989       61.35032       22.93893
O         41.05971       62.16685       22.53721
H         39.82477       60.35039       24.00245
H         42.78530       60.19045       24.64053
H         42.28852       60.51472       22.21739
H         43.05699       61.95862       22.91243
H         40.51345       61.64300       21.89506
N         42.72478       62.78268       25.59211
C         42.64602       63.86447       26.57266
C         41.52805       64.83632       26.24461
O         40.71768       65.12508       27.11388
C         43.97446       64.62585       26.62243
H         43.59054       62.68368       25.04078
H         42.48144       63.43572       27.58715
H         43.92381       65.42921       27.38882
H         44.79457       63.93063       26.90178
H         44.21068       65.08142       25.63741
N         41.42087       65.36594       24.99320
C         40.38383       66.31390       24.58986
C         39.00143       65.79497       24.91879
O         38.22369       66.50049       25.54580
C         40.47417       66.56710       23.07717
H         42.09970       65.05173       24.28178
H         40.53798       67.28274       25.11377
H         40.32741       65.62141       22.50935
H         39.69485       67.29216       22.75867
H         41.46998       66.98157       22.81527
N         38.64531       64.54561       24.53097
C         37.33374       63.95846       24.77207
C         37.02245       63.92623       26.26145
O         35.97002       64.41031       26.65353
C         37.26798       62.55266       24.14344
C         37.48912       62.61813       22.61291
C         37.36707       61.26902       21.99497
O         38.07366       60.34965       22.36867
O         36.45097       61.04122       21.04615
H         39.36436       63.98436       24.05276
H         36.55321       64.57067       24.26613
H         36.26434       62.11895       24.34183
H         38.03087       61.89244       24.61223
H         38.49032       63.01089       22.35858
H         36.73406       63.28946       22.15805
N         37.92227       63.42493       27.15169
C         37.72682       63.41666       28.58774
H         36.73028       63.80478       28.88374
H         37.83255       62.37978       28.96891
H         38.50468       64.05074       29.06577
H         38.81538       63.06886       26.80216
Ca        35.97597       58.87003       20.92912
O         40.36108       58.37767       20.40457
H         40.53792       58.45368       19.43331
H         41.25951       58.39340       20.81976
O         38.99790       60.80658       19.18702
H         39.90201       60.85540       18.78652
H         38.38710       61.07679       18.45673

Ca 1.0



