%chk=holoCaM-CaMKII.loop4.water1.frame484.chk
%nprocshared=20
%mem=10GB
%nosave
#b3lyp/svp scf=(tight,noincore,xqc) Test 
#IOP(5/87=12) Density=Current Pop=(MK,readradii) iop(6/33=2) iop(6/42=6)

holoCaM-CaMKII.loop4.water1.frame484 

   -3  1 
C         94.59094       82.88672       73.44133
C         94.98252       81.75506       72.54329
O         94.80897       80.60806       72.92730
H         93.50688       82.81553       73.66918
H         95.17348       82.82658       74.38309
H         94.78697       83.86905       72.96174
N         95.50892       82.00294       71.31463
C         95.86120       80.94200       70.38708
C         96.99076       80.08449       70.93496
O         97.99614       80.63850       71.35808
C         96.28837       81.53299       69.03523
C         96.31840       80.47955       67.97308
O         96.61726       80.79015       66.83714
O         95.88800       79.22951       68.23176
H         95.62459       82.98366       71.01402
H         94.94330       80.34217       70.20998
H         97.27304       82.04154       69.12141
H         95.53410       82.27838       68.69882
N         96.91819       78.72263       70.89348
C         97.96135       77.84525       71.40277
C         98.72913       77.22483       70.23695
O         99.91640       77.49730       70.12006
C         97.33511       76.79050       72.36900
C         96.58397       77.50932       73.52464
C         98.41429       75.83354       72.90529
C         95.88440       76.57068       74.51149
H         96.09853       78.28060       70.46354
H         98.70078       78.44040       71.98520
H         96.59348       76.18279       71.80402
H         95.79242       78.15463       73.08913
H         97.28778       78.15833       74.08924
H         99.16998       76.38937       73.49868
H         97.96384       75.04076       73.53576
H         98.92320       75.31081       72.06898
H         95.16943       75.90481       73.98713
H         96.61552       75.95365       75.07021
H         95.32142       77.17592       75.25378
N         98.14230       76.36410       69.35380
C         98.89584       75.70038       68.28214
C         99.34685       76.63050       67.14661
O        100.06525       76.15942       66.27534
C         98.13614       74.46310       67.75628
C         96.76974       74.76034       67.21706
O         96.62492       75.49254       66.25283
O         95.69496       74.18842       67.79166
H         97.15627       76.10990       69.50737
H         99.82457       75.28328       68.73367
H         98.02513       73.74839       68.60194
H         98.73741       73.95413       66.97176
N         99.02853       77.95641       67.10836
C         99.58841       78.88660       66.13601
C         99.13496       78.66769       64.70812
O         99.98420       78.49577       63.84468
H         98.43591       78.35846       67.84588
H        100.69980       78.84607       66.19418
H         99.28373       79.91758       66.41407
N         97.81259       78.72723       64.37767
C         97.31686       78.68631       62.99832
C         96.49925       79.93420       62.63152
O         96.10312       80.04247       61.48012
C         96.57103       77.35483       62.73695
C         95.34201       77.10653       63.56314
O         94.81404       76.00714       63.55037
O         94.81640       78.07346       64.31962
H         97.13621       78.82185       65.14423
H         98.17901       78.68016       62.29607
H         97.29339       76.54238       62.96693
H         96.29060       77.27090       61.66523
N         96.23265       80.92523       63.53768
C         95.54786       82.17208       63.22559
C         94.22470       82.33689       63.95090
O         93.64776       83.40948       63.83154
H         96.55730       80.83262       64.50098
H         95.34567       82.27086       62.13823
H         96.22230       83.00692       63.51723
N         93.63930       81.32047       64.65114
C         92.30364       81.42058       65.23856
C         92.26418       80.93098       66.67098
O         93.25947       80.41591       67.16289
C         91.28321       80.69104       64.32337
C         91.61402       79.24989       63.86168
C         91.54719       78.14750       64.89097
N         91.77512       76.86951       64.50707
O         91.26664       78.38140       66.05380
H         94.10919       80.40765       64.68901
H         91.98211       82.48482       65.28045
H         91.25049       81.29015       63.38698
H         90.26315       80.72547       64.76091
H         92.61062       79.23679       63.37374
H         90.86879       78.98570       63.08123
H         91.99736       76.64800       63.52498
H         91.72052       76.09695       65.18681
N         91.11819       81.06945       67.40587
C         90.96868       80.55745       68.76164
C         89.80779       79.57383       68.77013
O         88.66487       80.00082       68.66884
C         90.75581       81.71867       69.77728
C         90.67119       81.20148       71.22328
C         91.89077       82.75170       69.68667
H         90.30781       81.54692       66.98131
H         91.89087       80.02781       69.05779
H         89.80379       82.24117       69.53454
H         91.62042       80.70506       71.51583
H         90.48970       82.04487       71.92390
H         89.83517       80.48364       71.34041
H         91.93759       83.19466       68.66990
H         91.71130       83.58194       70.40347
H         92.87065       82.28319       69.91997
N         90.03093       78.22921       68.83435
C         88.94700       77.24063       68.86090
C         88.24138       77.32197       70.21281
O         88.73228       78.03358       71.06707
C         89.56334       75.84809       68.55012
C         88.60239       74.69748       68.34745
N         88.45830       74.12495       67.12834
O         87.98150       74.24215       69.29211
H         91.00842       77.89912       68.83312
H         88.23442       77.48211       68.04121
H         90.30439       75.56828       69.33075
H         90.11931       75.97748       67.59596
H         88.97953       74.47166       66.31011
H         87.81642       73.32832       66.99969
N         87.08640       76.65688       70.49433
C         86.46243       76.69503       71.82188
C         87.40460       76.13100       72.88071
O         87.57985       76.75458       73.91759
C         85.13289       75.91302       71.81774
C         84.42194       75.99276       73.15339
C         84.03009       77.23620       73.68438
C         84.14209       74.82330       73.88023
C         83.38005       77.30666       74.91980
C         83.48697       74.89636       75.11408
C         83.10531       76.13971       75.63856
O         82.47476       76.22526       76.82741
H         86.63027       76.11715       69.74633
H         86.22713       77.75241       72.07285
H         85.33426       74.85377       71.54383
H         84.46213       76.34281       71.04263
H         84.22752       78.15438       73.14660
H         84.42981       73.85380       73.49376
H         83.08862       78.27071       75.31820
H         83.27720       73.98622       75.66156
H         82.26290       75.44252       77.35572
N         88.09320       74.98117       72.63726
C         89.09150       74.38724       73.52780
C         90.08483       75.43348       74.00550
O         90.26524       75.58452       75.20581
C         89.79647       73.23965       72.75912
C         90.90073       72.52324       73.54549
C         91.42898       71.36181       72.74773
O         92.60076       71.32626       72.40775
O         90.60729       70.34958       72.40644
H         87.94012       74.53404       71.72368
H         88.58488       73.95977       74.42118
H         90.24272       73.63749       71.81869
H         89.01579       72.49750       72.48071
H         90.50021       72.13895       74.50622
H         91.72702       73.23695       73.75966
N         90.73380       76.21666       73.10876
C         91.68046       77.26716       73.47535
C         91.01586       78.31720       74.36241
O         91.51970       78.57166       75.44729
C         92.28333       77.87473       72.18948
C         93.13110       76.80837       71.45461
C         93.70514       77.25650       70.14757
O         94.48716       76.41246       69.45094
O         93.48162       78.36702       69.70400
H         90.51937       76.06267       72.11194
H         92.52546       76.82744       74.05233
H         92.94309       78.73065       72.44799
H         91.46527       78.24364       71.53300
H         92.53093       75.90287       71.23756
H         93.97176       76.51450       72.11270
N         89.86026       78.92936       73.98680
C         89.14053       79.89418       74.79339
H         88.13253       79.49020       75.03212
H         89.66025       80.12592       75.74526
H         89.01306       80.83410       74.21641
H         89.43940       78.67796       73.09545
Ca        95.13998       78.05753       66.51165
O         92.58597       75.10721       67.66242
H         93.34072       74.83188       67.08566
H         92.68534       74.56682       68.48636

Ca 1.0



