%chk=holoCaM-CaMKII.loop1.water2.frame118.chk
%nprocshared=20
%mem=10GB
%nosave
#b3lyp/svp scf=(tight,noincore,xqc) Test 
#IOP(5/87=12) Density=Current Pop=(MK,readradii) iop(6/33=2) iop(6/42=6)

holoCaM-CaMKII.loop1.water2.frame118 

   0  1 
C         34.20292       46.72638       57.26837
C         33.56291       47.17471       55.98980
O         32.35131       47.26524       55.93732
H         34.88062       47.52242       57.64212
H         33.43508       46.51475       58.04301
H         34.78919       45.80205       57.08286
N         34.34205       47.50374       54.92505
C         33.85695       47.96087       53.62011
C         33.28686       46.77490       52.82204
O         33.93734       46.30691       51.89696
C         35.05955       48.61366       52.89933
C         34.79365       49.29092       51.58470
O         35.75383       49.69243       50.95025
O         33.56267       49.50010       51.07870
H         35.36251       47.46456       55.07847
H         33.11468       48.76359       53.76341
H         35.82676       47.82688       52.73131
H         35.50632       49.38627       53.56272
N         32.10240       46.19257       53.16820
C         31.63553       44.92810       52.59811
C         31.21402       45.02676       51.13169
O         30.95737       43.97792       50.55600
C         30.47731       44.34399       53.45429
C         30.91805       44.06453       54.91006
C         29.75569       43.57393       55.78690
C         30.14156       43.44843       57.27549
N         31.17366       42.43770       57.51311
H         31.54712       46.61959       53.91501
H         32.47641       44.20016       52.65786
H         30.12618       43.38423       53.01376
H         29.62771       45.06195       53.44812
H         31.30392       44.99128       55.37241
H         31.73474       43.31192       54.90008
H         29.37039       42.60245       55.40856
H         28.93436       44.32149       55.72847
H         29.23026       43.16959       57.84963
H         30.49113       44.43429       57.65746
H         32.07260       42.70865       57.05573
H         31.34454       42.36610       58.54259
H         30.85469       41.50688       57.15965
N         31.09523       46.21703       50.46309
C         30.68113       46.30523       49.05779
C         31.71390       46.99957       48.16064
O         31.47173       47.09122       46.96528
C         29.27064       46.92836       48.95850
C         29.14103       48.37125       49.36004
O         27.92303       48.94476       49.34647
O         30.11262       49.03703       49.67239
H         31.26264       47.09312       50.97215
H         30.56833       45.28201       48.63761
H         28.59185       46.32553       49.60168
H         28.90680       46.84025       47.91221
N         32.91277       47.44153       48.64095
C         33.99121       47.93469       47.79414
C         33.73684       49.27706       47.13869
O         33.81473       49.37110       45.92255
H         33.12894       47.33157       49.63948
H         34.23157       47.16565       47.02811
H         34.89843       48.06365       48.42477
N         33.52024       50.37877       47.90658
C         33.47455       51.75219       47.41365
C         34.57631       52.60590       48.06100
O         34.56866       53.81576       47.88082
C         32.06271       52.35077       47.60797
C         31.54668       52.45659       49.01852
O         32.26733       52.04211       50.07465
O         30.43669       52.92689       49.20515
H         33.43754       50.24227       48.91446
H         33.65345       51.78353       46.31617
H         31.34552       51.72613       47.03278
H         32.05219       53.37021       47.16322
N         35.59987       52.03266       48.76546
C         36.71372       52.77114       49.34613
C         36.39843       53.49049       50.64427
O         37.32494       54.06297       51.20385
H         35.66253       51.00830       48.81697
H         37.13819       53.47192       48.59410
H         37.51140       52.03949       49.60070
N         35.15129       53.51500       51.19671
C         34.84498       54.17749       52.46491
C         34.10635       53.24863       53.42171
O         33.69847       52.16212       53.02743
C         34.02129       55.46327       52.20656
C         34.85609       56.54648       51.50913
O         32.85563       55.18285       51.47110
H         34.37763       53.06764       50.69290
H         35.78546       54.47131       52.98240
H         33.71260       55.90057       53.18016
H         33.11246       55.02323       50.52470
H         35.21881       56.20012       50.51874
H         34.23945       57.45866       51.36514
H         35.73177       56.81148       52.13972
N         33.93507       53.61778       54.72642
C         33.23524       52.81465       55.72667
C         32.14976       53.66917       56.36428
O         32.47806       54.64593       57.02717
C         34.24692       52.28703       56.79340
C         35.28086       51.34718       56.11797
C         33.52199       51.55764       57.94601
C         36.42954       50.92393       57.03610
H         34.35088       54.50999       55.03993
H         32.76194       51.93279       55.24816
H         34.78434       53.16206       57.22407
H         35.74981       51.86935       55.25812
H         34.76467       50.44043       55.73269
H         32.95859       50.67879       57.56685
H         34.23312       51.22343       58.72672
H         32.81861       52.24014       58.46131
H         36.97697       51.82022       57.39828
H         36.07452       50.33249       57.90265
H         37.13684       50.28597       56.46521
N         30.82971       53.36524       56.20194
C         29.76067       54.13945       56.83718
C         29.64575       53.76035       58.30896
O         30.35203       52.86926       58.74747
C         28.40002       53.91159       56.12567
C         28.46567       54.26641       54.63980
O         28.00079       52.57568       56.25911
H         30.58103       52.56877       55.59618
H         29.99586       55.22359       56.74193
H         27.64763       54.57795       56.60691
H         27.02916       52.54560       56.05824
H         27.46264       54.15237       54.17790
H         28.81131       55.31136       54.49637
H         29.15180       53.57159       54.12341
N         28.76295       54.38626       59.13597
C         28.54871       53.96867       60.52256
C         27.86472       52.60191       60.55586
O         28.30500       51.73393       61.29535
C         27.71805       55.02154       61.29583
C         27.61360       54.66554       62.78554
O         28.35391       56.27283       61.20596
H         28.21873       55.17842       58.76331
H         29.53193       53.92222       61.04518
H         26.68346       55.07960       60.88104
H         27.91045       56.78269       60.47931
H         27.09576       53.69570       62.93455
H         28.62848       54.60162       63.23763
H         27.04442       55.45199       63.32450
N         26.80093       52.34198       59.73644
C         26.09182       51.05755       59.66449
C         27.06133       49.91076       59.47011
O         27.04777       48.97841       60.26196
C         25.07293       51.06974       58.49838
C         23.88915       52.00602       58.77891
C         22.94648       52.09992       57.57002
C         21.64710       52.86322       57.88552
N         21.88664       54.23300       58.34406
H         26.51590       53.09198       59.08891
H         25.54410       50.87160       60.61495
H         24.65846       50.04712       58.35044
H         25.59035       51.36433       57.55965
H         24.25571       53.02369       59.02000
H         23.33577       51.60511       59.65572
H         22.65639       51.07720       57.24383
H         23.48070       52.59286       56.72730
H         21.07392       52.31070       58.66264
H         21.02812       52.89152       56.96130
H         22.45443       54.75931       57.64167
H         20.96581       54.71274       58.46706
H         22.36960       54.23150       59.27072
N         27.96591       49.94218       58.46031
C         28.98597       48.92282       58.25999
C         29.82479       48.74715       59.51238
O         29.90962       47.63508       60.01425
C         29.89264       49.32571       57.09215
C         29.18063       49.20810       55.73457
C         30.10610       49.55950       54.61280
O         31.23614       49.96066       54.83825
O         29.72755       49.38526       53.33921
H         27.95530       50.76099       57.84049
H         28.51231       47.94331       58.02206
H         30.76092       48.64143       57.07704
H         30.27610       50.36061       57.24505
H         28.28078       49.85480       55.68077
H         28.86997       48.14971       55.59542
N         30.45671       49.80951       60.07715
C         31.25761       49.72986       61.27906
H         32.28088       50.09975       61.06078
H         30.80235       50.37294       62.06138
H         31.32936       48.69444       61.67119
H         30.34938       50.73088       59.64635
Ca        31.52238       49.46236       52.01033
O         30.53210       53.54790       52.03961
H         30.84082       54.27059       52.64084
H         29.63662       53.84639       51.74052
O         28.23730       51.58738       51.63225
H         27.25427       51.69768       51.60152
H         28.39164       50.65020       51.35657

Ca 1.0



