%chk=holoCaM.loop3.water2.frame358.chk
%nprocshared=20
%mem=10GB
%nosave
#b3lyp/svp scf=(tight,noincore,xqc) Test 
#IOP(5/87=12) Density=Current Pop=(MK,readradii) iop(6/33=2) iop(6/42=6)

holoCaM.loop3.water2.frame358 

   0  1 
C         -3.49590       23.82445       71.41760
C         -4.96713       23.92489       71.71421
O         -5.57195       24.95722       71.46201
H         -2.92999       23.84371       72.37501
H         -3.27174       22.86550       70.90338
H         -3.14708       24.66411       70.78287
N         -5.58851       22.86722       72.29900
C         -6.96912       22.83277       72.74206
C         -6.91077       22.72864       74.25456
O         -7.01046       21.63912       74.78932
C         -7.66895       21.61020       72.11878
C         -9.08310       21.53008       72.53431
O         -9.61511       20.45379       72.47087
O         -9.84092       22.63007       72.57973
H         -5.02678       22.02407       72.48749
H         -7.53588       23.74688       72.43595
H         -7.16206       20.65802       72.40297
H         -7.68840       21.64660       71.01155
N         -6.62164       23.82656       74.99720
C         -6.35857       23.80061       76.44459
C         -7.53086       23.28013       77.27201
O         -7.31345       22.75010       78.35354
C         -5.95068       25.21224       76.90463
C         -4.63368       25.62698       76.20813
C         -4.10681       26.96270       76.72834
C         -2.96736       27.52044       75.85540
N         -2.45682       28.76601       76.43797
H         -6.56399       24.71915       74.48469
H         -5.49716       23.12987       76.65884
H         -5.82250       25.23976       78.00853
H         -6.76356       25.92936       76.63537
H         -4.81029       25.71349       75.11944
H         -3.85370       24.84768       76.36357
H         -3.73911       26.81513       77.76672
H         -4.93327       27.70245       76.74452
H         -3.33204       27.70467       74.81584
H         -2.14078       26.78069       75.78207
H         -3.22301       29.47192       76.53847
H         -2.06026       28.56720       77.38407
H         -1.69849       29.16709       75.84007
N         -8.79575       23.36928       76.79624
C         -9.99484       22.91397       77.50452
C        -10.39581       21.47908       77.14979
O        -11.30984       20.95580       77.76966
C        -11.18178       23.87730       77.24729
C        -11.43915       24.14317       75.78533
O        -10.66430       24.84069       75.15249
O        -12.55543       23.68935       75.18790
H         -8.87727       23.74467       75.85311
H         -9.79342       22.90894       78.59850
H        -11.01239       24.86021       77.73437
H        -12.08866       23.43771       77.71138
N         -9.76220       20.78467       76.17382
C        -10.03469       19.41480       75.78165
C        -11.45369       19.14958       75.31777
O        -11.97111       18.09531       75.66149
H         -9.01365       21.24560       75.66981
H         -9.77788       18.72274       76.61381
H         -9.36052       19.18348       74.92638
N        -12.11585       19.99939       74.47364
C        -13.44469       19.68036       73.92081
C        -13.39830       19.02327       72.52469
O        -14.40451       18.48743       72.08480
C        -14.38418       20.90126       73.90625
C        -14.04811       21.96970       72.90349
N        -14.99949       22.85573       72.55599
O        -12.95626       22.02270       72.37090
H        -11.64349       20.87716       74.21321
H        -13.92382       18.93973       74.59368
H        -14.48969       21.36321       74.90871
H        -15.37847       20.51367       73.60301
H        -15.92998       22.82972       72.98886
H        -14.82936       23.53201       71.81455
N        -12.26396       19.04930       71.78146
C        -12.04479       18.45782       70.46389
C        -11.72400       19.48033       69.38267
O        -11.51553       19.08901       68.24135
H        -11.49973       19.54106       72.19443
H        -12.95525       17.93898       70.11233
H        -11.21184       17.72791       70.55381
N        -11.79867       20.81018       69.65537
C        -11.90310       21.85544       68.65717
C        -11.11927       23.09821       69.07591
O        -10.92226       23.34131       70.25267
C        -13.40542       22.21426       68.52810
C        -14.28909       21.01508       68.21904
C        -15.23978       20.56886       69.16023
C        -14.17564       20.33214       66.99565
C        -16.04789       19.45879       68.88479
C        -14.97902       19.21825       66.72682
C        -15.91012       18.77355       67.67430
O        -16.65947       17.67876       67.43771
H        -12.01376       21.08393       70.60254
H        -11.53889       21.50421       67.66975
H        -13.55442       22.97711       67.73611
H        -13.72839       22.64770       69.49930
H        -15.34856       21.06982       70.11434
H        -13.46301       20.65752       66.25067
H        -16.77052       19.11891       69.61810
H        -14.87715       18.69553       65.78334
H        -16.49840       17.11434       66.66776
N        -10.64872       23.93160       68.11760
C         -9.92076       25.17728       68.32766
C        -10.64053       26.25723       67.51293
O        -10.82841       26.07671       66.31672
C         -8.45733       25.00280       67.81260
C         -7.65869       23.95674       68.65264
C         -7.69087       26.34088       67.77846
C         -6.20638       23.77397       68.18699
H        -10.81488       23.65345       67.14354
H         -9.87335       25.47006       69.40357
H         -8.54487       24.65245       66.76309
H         -8.15187       22.96230       68.61134
H         -7.63794       24.27338       69.72004
H         -7.32289       26.63814       68.78201
H         -6.83699       26.25268       67.07640
H         -8.30244       27.15724       67.37043
H         -5.62484       24.71082       68.32517
H         -5.70860       22.99123       68.79575
H         -6.16510       23.46498       67.12141
N        -11.02203       27.42632       68.09303
C        -11.60127       28.55120       67.38206
C        -10.53727       29.46899       66.83625
O         -9.35930       29.29124       67.08993
C        -12.56858       29.33518       68.29903
O        -11.92053       29.91023       69.39759
H        -10.81582       27.56226       69.07086
H        -12.20267       28.17750       66.53236
H        -13.32771       28.61812       68.66379
H        -13.05733       30.14609       67.72080
H        -12.62325       30.12827       70.06520
N        -10.91773       30.49591       66.04605
C        -10.01070       31.52421       65.57622
C         -9.55638       32.40496       66.74271
O         -8.43310       32.88661       66.71705
C        -10.71372       32.29589       64.46391
H        -11.91425       30.55410       65.78868
H         -9.11004       31.05283       65.12280
H        -11.69263       32.68535       64.81928
H        -10.07436       33.11554       64.09273
H        -10.91098       31.59103       63.61986
N        -10.35515       32.58640       67.83632
C         -9.93104       33.24472       69.07472
C         -8.83834       32.43309       69.78441
O         -7.86390       33.00534       70.24928
C        -11.15016       33.42493       69.99853
H        -11.31634       32.21490       67.79806
H         -9.56527       34.27164       68.85015
H        -11.97370       33.89674       69.41796
H        -11.52715       32.46556       70.41193
H        -10.90241       34.09876       70.84578
N         -8.95094       31.07666       69.88493
C         -7.96393       30.17258       70.48346
C         -6.64640       30.21087       69.71755
O         -5.59841       30.20370       70.34894
C         -8.51984       28.71470       70.52748
C         -9.62630       28.54131       71.59760
C        -10.27091       27.16851       71.63530
O        -11.36478       26.99798       71.12849
O         -9.85534       26.23838       72.50135
H         -9.77635       30.65314       69.45891
H         -7.75213       30.46974       71.53269
H         -7.70280       28.00588       70.77807
H         -8.89808       28.45586       69.52309
H        -10.43122       29.28473       71.43499
H         -9.18551       28.75168       72.59606
N         -6.62202       30.28695       68.35932
C         -5.40279       30.39380       67.58701
H         -4.54926       29.90059       68.09672
H         -5.54648       29.90539       66.59865
H         -5.17017       31.46601       67.41812
H         -7.50452       30.39945       67.85691
Ca       -11.15508       24.40798       72.66164
O        -13.70330       25.25866       70.87847
H        -13.99063       26.17231       71.11646
H        -14.33638       24.97861       70.16971
O        -12.88828       26.50729       73.65934
H        -12.46370       26.99197       74.40983
H        -13.27548       27.21990       73.09300

Ca 1.0



