%chk=holoCaM-CaMKII.loop1.water2.frame39.chk
%nprocshared=20
%mem=10GB
%nosave
#b3lyp/svp scf=(tight,noincore,xqc) Test 
#IOP(5/87=12) Density=Current Pop=(MK,readradii) iop(6/33=2) iop(6/42=6)

holoCaM-CaMKII.loop1.water2.frame39 

   0  1 
C         13.49007       68.40826       25.49408
C         12.82733       68.03741       26.78508
O         13.15936       67.01403       27.36200
H         14.27181       67.66879       25.22216
H         12.72686       68.44401       24.68835
H         13.95973       69.41020       25.59340
N         11.87901       68.85838       27.30638
C         11.18181       68.60352       28.56305
C         10.31981       67.35511       28.44095
O          9.25257       67.42670       27.84766
C         10.41934       69.89712       28.93942
C          9.43094       69.86773       30.06447
O          8.33932       70.36962       29.86902
O          9.71451       69.39041       31.28998
H         11.67415       69.72659       26.78572
H         11.93728       68.43050       29.34407
H          9.86320       70.26252       28.04639
H         11.18182       70.66730       29.17978
N         10.77800       66.14358       28.89956
C         10.04459       64.89842       28.67093
C          8.91066       64.68935       29.66630
O          8.11176       63.78930       29.44823
C         10.95719       63.64724       28.69751
C         12.08108       63.67452       27.64446
C         12.67607       62.26463       27.46133
C         13.74707       62.18211       26.36033
N         14.99516       62.84162       26.74362
H         11.72127       66.09403       29.31391
H          9.60993       64.94604       27.64742
H         10.30053       62.77858       28.46755
H         11.39675       63.48551       29.70745
H         12.85699       64.40812       27.94714
H         11.65528       63.98456       26.66598
H         11.84437       61.59584       27.14645
H         13.08699       61.87422       28.41756
H         13.35541       62.61581       25.41292
H         13.96542       61.10694       26.17261
H         14.84809       63.86342       26.89843
H         15.37722       62.39816       27.61079
H         15.69177       62.71522       25.97362
N          8.79385       65.44441       30.79405
C          7.72524       65.27887       31.77512
C          6.86771       66.53203       31.87968
O          5.97432       66.55207       32.71602
C          8.30340       64.81109       33.13102
C          9.46967       65.61079       33.62686
O         10.65531       64.99983       33.80956
O          9.35612       66.79798       33.87322
H          9.49495       66.17249       30.98413
H          7.01548       64.47804       31.47283
H          8.65554       63.76399       33.00547
H          7.50311       64.79668       33.90321
N          6.99501       67.57305       31.00377
C          6.06708       68.69237       30.99071
C          6.21697       69.65228       32.15714
O          5.42118       70.57779       32.22945
H          7.69442       67.53287       30.24879
H          5.03155       68.29310       30.95377
H          6.20745       69.27218       30.05546
N          7.20331       69.52768       33.09541
C          7.34929       70.43751       34.23464
C          7.76278       71.87116       33.86250
O          7.93504       72.67112       34.77226
C          8.29051       69.82356       35.30559
C          9.73295       69.62537       34.92852
O         10.57225       69.07533       35.82520
O         10.15665       69.93917       33.83255
H          7.84767       68.72972       33.03145
H          6.36181       70.50043       34.74291
H          7.88087       68.82944       35.58849
H          8.26740       70.46626       36.21113
N          7.89080       72.29326       32.56909
C          8.19555       73.66426       32.19384
C          9.66154       74.02389       32.29540
O          9.98628       75.14994       31.94885
H          7.68322       71.65507       31.79899
H          7.56301       74.36902       32.77803
H          7.93033       73.79926       31.12218
N         10.60627       73.13777       32.73196
C         12.03342       73.45281       32.77598
C         12.83823       72.41161       32.00348
O         12.30542       71.36444       31.66693
C         12.52391       73.53896       34.24203
C         11.70467       74.53806       35.07363
O         12.51641       72.27842       34.86176
H         10.31154       72.20970       33.04591
H         12.20844       74.44250       32.30013
H         13.57665       73.89590       34.23141
H         11.57589       71.97680       34.94213
H         12.11733       74.59841       36.10253
H         11.73465       75.54733       34.61316
H         10.64445       74.21084       35.14821
N         14.13614       72.66245       31.65934
C         14.98178       71.71771       30.92731
C         16.29563       71.54110       31.67946
O         16.94668       72.52880       31.98749
C         15.18413       72.19096       29.45592
C         13.80890       72.18947       28.72854
C         16.16585       71.25315       28.71590
C         13.82933       72.79703       27.32677
H         14.53046       73.58810       31.88520
H         14.49031       70.73187       30.85444
H         15.60516       73.22003       29.46236
H         13.07480       72.78595       29.30760
H         13.43103       71.14489       28.66263
H         16.33359       71.57424       27.66977
H         17.16098       71.25821       29.20338
H         15.77927       70.21104       28.70824
H         12.80296       72.75923       26.90222
H         14.14993       73.85843       27.38093
H         14.49425       72.24017       26.63852
N         16.76526       70.28852       31.95767
C         18.01106       70.02612       32.68024
C         19.12801       69.69182       31.70024
O         18.88268       69.67627       30.50899
C         17.81134       68.83766       33.66387
C         16.59487       69.01057       34.57105
O         17.65343       67.64416       32.93965
H         16.24082       69.47933       31.59873
H         18.31340       70.92942       33.25428
H         18.72322       68.77094       34.30240
H         18.01624       66.91020       33.50155
H         15.67053       69.01948       33.95700
H         16.52658       68.14775       35.26839
H         16.66411       69.94825       35.15753
N         20.38562       69.39478       32.13756
C         21.45106       68.92202       31.24818
C         21.07676       67.59055       30.61375
O         21.20895       67.45434       29.40528
C         22.80328       68.76507       31.99319
C         23.41490       70.12775       32.35895
O         22.68965       67.91511       33.11223
H         20.57759       69.47423       33.14549
H         21.62445       69.66036       30.43241
H         23.53481       68.29887       31.29570
H         22.50145       68.46449       33.91761
H         23.58316       70.72262       31.43471
H         22.74934       70.70129       33.03613
H         24.39742       69.97674       32.85421
N         20.59653       66.56701       31.37547
C         20.26493       65.23886       30.85725
C         19.30485       65.33922       29.68349
O         19.58683       64.81667       28.61498
C         19.63228       64.39870       31.99750
C         19.42581       62.90876       31.67805
C         20.76650       62.16740       31.56958
C         20.57440       60.65323       31.43881
N         21.86821       59.97048       31.46866
H         20.45238       66.74981       32.38089
H         21.20704       64.75976       30.52037
H         18.64970       64.84163       32.26933
H         20.27417       64.45752       32.90402
H         18.81013       62.77459       30.76217
H         18.86654       62.47001       32.53412
H         21.34758       62.36170       32.49755
H         21.34854       62.53429       30.69880
H         20.04602       60.42189       30.48756
H         19.95533       60.28173       32.28588
H         22.47332       60.30376       30.68361
H         22.34623       60.15595       32.38131
H         21.71814       58.94058       31.37404
N         18.16176       66.05428       29.82548
C         17.17419       66.27580       28.77670
C         17.78659       66.93879       27.55476
O         17.59263       66.43858       26.45585
C         16.05058       67.15935       29.33754
C         15.22402       66.40376       30.39743
C         14.12138       67.24722       30.94633
O         13.98627       68.40499       30.59280
O         13.21751       66.71568       31.78080
H         18.00712       66.49978       30.73998
H         16.72310       65.31023       28.45533
H         15.36866       67.45818       28.51467
H         16.48976       68.08553       29.76796
H         15.84866       66.05076       31.24284
H         14.75854       65.52114       29.90656
N         18.54130       68.06263       27.67450
C         19.13515       68.76747       26.55792
H         20.24122       68.73835       26.65072
H         18.84729       68.32953       25.58000
H         18.80360       69.82725       26.57900
H         18.72631       68.42824       28.60915
Ca        11.32936       67.90446       31.72600
O         13.34379       69.46876       34.92077
H         13.44286       68.71877       35.55755
H         13.88870       70.19087       35.32121
O         12.95059       66.41526       34.59633
H         12.40659       66.22167       35.40056
H         13.59240       65.66424       34.53824

Ca 1.0



