%chk=holoCaM.loop4.water3.frame37.chk
%nprocshared=20
%mem=10GB
%nosave
#b3lyp/svp scf=(tight,noincore,xqc) Test 
#IOP(5/87=12) Density=Current Pop=(MK,readradii) iop(6/33=2) iop(6/42=6)

holoCaM.loop4.water3.frame37 

   -3  1 
C        102.86906      -10.46400       20.33126
C        102.14034       -9.97882       21.55603
O        102.24379       -8.81033       21.89782
H        103.96425      -10.39151       20.46854
H        102.60711      -11.51989       20.09590
H        102.55934       -9.85123       19.45645
N        101.31782      -10.82934       22.22057
C        100.36161      -10.41327       23.23549
C        100.94834      -10.00365       24.59052
O        101.71779      -10.77432       25.14661
C         99.38761      -11.58967       23.48147
C         98.13730      -11.10617       24.10762
O         97.78376       -9.84205       23.83921
O         97.34829      -11.88821       24.60630
H        101.25734      -11.79831       21.86948
H         99.80037       -9.56519       22.78536
H         99.87236      -12.38887       24.08311
H         99.05882      -12.03209       22.51752
N        100.52848       -8.86136       25.23170
C        100.92838       -8.50188       26.60193
C         99.74946       -8.37165       27.59719
O        100.04537       -8.20662       28.77346
C        101.81673       -7.21302       26.61508
C        101.08634       -5.97661       26.02809
C        103.13867       -7.49064       25.87698
C        101.87475       -4.66719       26.14388
H         99.87786       -8.23827       24.73883
H        101.55305       -9.31905       27.02499
H        102.07761       -6.99182       27.67482
H        100.12340       -5.82998       26.56311
H        100.87752       -6.14742       24.95676
H        103.84079       -6.63822       25.96911
H        103.64644       -8.36946       26.32802
H        102.95638       -7.69401       24.80077
H        101.27359       -3.83578       25.71726
H        102.09278       -4.43648       27.20771
H        102.82417       -4.70753       25.57277
N         98.42250       -8.40433       27.23866
C         97.31949       -8.23834       28.21134
C         96.21539       -9.30685       28.11738
O         95.29566       -9.25024       28.92330
C         96.70610       -6.81521       28.10339
C         96.06339       -6.48667       26.78604
O         96.02349       -7.38763       25.80918
O         95.57929       -5.38603       26.59202
H         98.18975       -8.48035       26.24207
H         97.72264       -8.30412       29.24719
H         97.51124       -6.07290       28.28615
H         95.93522       -6.68621       28.89538
N         96.22727      -10.30712       27.18915
C         95.20401      -11.34823       27.10810
C         93.81883      -10.90323       26.64108
O         92.94594      -11.75970       26.61008
H         97.02794      -10.38390       26.55417
H         95.11338      -11.83584       28.10442
H         95.53981      -12.13011       26.39565
N         93.51376       -9.62008       26.27827
C         92.14735       -9.20063       25.94290
C         91.55459       -9.84978       24.68655
O         90.34974       -9.74085       24.50606
C         92.01957       -7.65495       25.87408
C         92.79582       -6.96957       24.78160
O         93.51470       -7.59590       24.02978
O         92.69901       -5.63538       24.63469
H         94.24650       -8.90732       26.32681
H         91.51048       -9.52196       26.79630
H         92.35533       -7.22418       26.84111
H         90.94912       -7.39609       25.73331
N         92.31746      -10.49762       23.76146
C         91.76661      -11.16784       22.58513
C         91.97970      -10.40268       21.28810
O         91.62781      -10.93395       20.24474
H         93.33445      -10.50105       23.88282
H         90.67267      -11.33157       22.68899
H         92.23623      -12.17372       22.51217
N         92.50330       -9.14373       21.27230
C         92.70478       -8.33870       20.06980
C         94.17661       -7.97549       19.92588
O         94.97195       -8.34700       20.77879
C         91.87521       -7.03517       20.16861
C         90.36166       -7.27357       20.24423
C         89.62462       -5.95457       20.21381
N         88.83364       -5.57043       21.24218
O         89.74321       -5.22287       19.24132
H         92.76180       -8.71114       22.15995
H         92.39508       -8.89588       19.15869
H         92.06677       -6.41695       19.26747
H         92.19789       -6.45182       21.06084
H         90.11998       -7.83596       21.17171
H         90.03171       -7.87614       19.37078
H         88.71573       -6.16679       22.07328
H         88.33751       -4.66684       21.20692
N         94.60037       -7.21151       18.87306
C         95.97196       -6.73752       18.72275
C         96.00331       -5.21837       18.85289
O         95.40595       -4.51206       18.05333
C         96.63159       -7.25459       17.41071
C         95.84648       -6.92108       16.13133
C         98.07108       -6.72319       17.28830
H         93.91015       -6.91258       18.17003
H         96.59705       -7.15352       19.54204
H         96.68473       -8.36373       17.48056
H         94.83835       -7.38239       16.15618
H         95.74628       -5.82779       15.98157
H         96.37466       -7.34079       15.24870
H         98.07505       -5.61873       17.17756
H         98.66165       -6.99398       18.18791
H         98.57519       -7.15519       16.39941
N         96.69229       -4.66107       19.88606
C         96.83571       -3.22657       20.12108
C         97.81574       -2.61971       19.12094
O         98.43590       -3.35387       18.36613
C         97.34776       -3.06231       21.57775
C         97.51782       -1.66955       22.11799
N         96.46875       -0.82382       22.21736
O         98.61428       -1.31827       22.52441
H         97.12652       -5.30294       20.56199
H         95.83662       -2.74667       20.03191
H         98.31791       -3.59435       21.66261
H         96.62318       -3.56545       22.24642
H         95.52866       -1.10969       21.91054
H         96.59906        0.11624       22.62018
N         98.01107       -1.27294       19.06549
C         99.04770       -0.65015       18.24455
C        100.42767       -0.99556       18.77844
O        101.27031       -1.40670       17.99403
C         98.84575        0.87240       18.05654
C         98.60452        1.72467       19.27877
C         99.65295        2.42023       19.90140
C         97.28955        1.91010       19.74296
C         99.38715        3.27703       20.97745
C         97.02715        2.76049       20.81619
C         98.07112        3.45109       21.43506
O         97.79463        4.28753       22.45546
H         97.41175       -0.68038       19.64932
H         98.98213       -1.04224       17.20308
H         97.96256        1.01465       17.39518
H         99.69397        1.28713       17.46702
H        100.67031        2.31178       19.54686
H         96.46013        1.40688       19.26081
H        100.20112        3.81507       21.44613
H         96.00706        2.89400       21.15440
H         98.48052        4.80786       22.89644
N        100.72873       -0.88732       20.10463
C        102.03284       -1.27597       20.64689
C        102.31632       -2.78356       20.53635
O        103.43043       -3.17591       20.85583
C        102.20829       -0.83550       22.11832
C        101.99695        0.67589       22.31414
C        102.44768        1.11308       23.67741
O        103.62109        1.00269       23.99756
O        101.57061        1.65517       24.54281
H        100.01067       -0.50458       20.72993
H        102.80908       -0.73629       20.05899
H        103.25408       -1.08396       22.40853
H        101.52050       -1.39626       22.78969
H        100.92196        0.92203       22.18736
H        102.58142        1.24752       21.56230
N        101.39089       -3.67831       20.07063
C        101.66410       -5.10262       19.86327
C        101.75177       -5.43215       18.37561
O        102.22489       -6.51259       18.05114
C        100.53436       -5.95732       20.47440
C        100.35364       -5.76871       21.98793
C         99.09579       -6.43448       22.49727
O         98.37965       -7.08652       21.75598
O         98.72242       -6.26724       23.77796
H        100.45811       -3.34139       19.81464
H        102.64529       -5.37427       20.31213
H        100.70464       -7.03733       20.26366
H         99.59271       -5.64999       19.96763
H        100.26781       -4.68801       22.21395
H        101.23912       -6.17045       22.52534
N        101.29352       -4.57396       17.41840
C        101.35986       -4.82514       15.99607
H        101.90099       -3.98640       15.50855
H        101.88221       -5.77266       15.75562
H        100.32866       -4.86599       15.58578
H        100.84264       -3.69868       17.68743
Ca        95.91258       -8.79234       24.14170
O         95.36732      -11.15820       22.62144
H         95.68475      -11.90609       22.06040
H         95.21381      -11.56935       23.50881
O         95.70207       -5.76738       23.13935
H         95.87566       -5.13852       23.88425
H         94.81284       -5.50252       22.79467
O         97.61022       -9.69135       20.99683
H         97.56393      -10.66048       20.80634
H         98.47519       -9.40437       20.61098

Ca 1.0



