%chk=holoCaM.loop3.water2.frame3.chk
%nprocshared=20
%mem=10GB
%nosave
#b3lyp/svp scf=(tight,noincore,xqc) Test 
#IOP(5/87=12) Density=Current Pop=(MK,readradii) iop(6/33=2) iop(6/42=6)

holoCaM.loop3.water2.frame3 

   0  1 
C         49.06561       52.25909       51.86776
C         49.43274       53.26082       50.81920
O         48.76295       54.27898       50.71915
H         48.03212       51.90002       51.68205
H         49.75320       51.38769       51.85036
H         49.11863       52.73676       52.86763
N         50.48588       53.02931       49.98730
C         50.88516       53.95041       48.93886
C         50.68531       53.24765       47.61939
O         51.30207       52.21368       47.40388
C         52.34607       54.37165       49.17769
C         52.76884       55.58349       48.40989
O         51.92978       56.21754       47.57389
O         53.84427       56.09596       48.67104
H         51.02321       52.15438       50.08945
H         50.25256       54.86512       48.97906
H         53.04816       53.52790       49.00653
H         52.43094       54.67213       50.24174
N         49.79850       53.73017       46.70460
C         49.48230       53.02553       45.46684
C         50.08732       53.73183       44.26589
O         49.98272       53.19514       43.16910
C         47.95161       52.85433       45.33618
C         47.28619       52.19793       46.56964
C         47.75183       50.76805       46.89946
C         47.35533       49.74292       45.82637
N         47.78266       48.39717       46.21066
H         49.31824       54.62393       46.89138
H         49.94488       52.01564       45.47193
H         47.71309       52.27303       44.42045
H         47.49750       53.86246       45.21703
H         46.18452       52.18609       46.41983
H         47.48544       52.83604       47.45758
H         47.26503       50.46775       47.85345
H         48.84864       50.74930       47.06586
H         47.81959       50.00358       44.85194
H         46.24878       49.75220       45.70468
H         48.82523       48.36108       46.28633
H         47.35392       48.12689       47.12590
H         47.47259       47.71632       45.48016
N         50.79841       54.89101       44.39958
C         51.56802       55.50163       43.32476
C         53.06549       55.48514       43.64238
O         53.84345       55.87006       42.78267
C         51.05545       56.92141       43.00724
C         51.19581       57.90215       44.14095
O         51.89190       58.89415       44.00146
O         50.51753       57.72793       45.29055
H         50.85761       55.33911       45.32184
H         51.44615       54.90626       42.39293
H         49.98412       56.86735       42.71721
H         51.62153       57.30379       42.12926
N         53.54874       55.00340       44.83085
C         54.96095       54.81698       45.11003
C         55.80718       56.06884       45.19858
O         57.00295       55.89626       45.39378
H         52.90719       54.65587       45.55362
H         55.38550       54.15391       44.32567
H         55.06317       54.28912       46.08482
N         55.32146       57.34400       45.07310
C         56.23259       58.49148       45.11921
C         56.92058       58.64269       46.47503
O         57.88999       59.38331       46.56038
C         55.55069       59.81323       44.70692
C         54.60601       60.36099       45.75141
N         54.83350       61.57381       46.31075
O         53.63274       59.71109       46.09664
H         54.31914       57.49705       44.89692
H         57.01174       58.28907       44.34957
H         55.01077       59.66817       43.74618
H         56.35080       60.56329       44.52346
H         55.64911       62.14094       46.03533
H         54.19322       61.95131       47.02410
N         56.45621       57.98723       47.57815
C         57.09557       58.01986       48.87956
C         56.22505       58.64025       49.94922
O         56.60767       58.54203       51.10673
H         55.60552       57.41612       47.50576
H         58.06107       58.57055       48.86207
H         57.31465       56.96816       49.16331
N         55.09524       59.35714       49.65608
C         54.30245       60.02718       50.68192
C         52.82395       59.61922       50.54288
O         52.28437       60.17925       49.37538
C         54.47257       61.56479       50.59968
C         55.90922       61.98824       50.81399
C         56.89226       61.73477       49.83878
C         56.28111       62.64235       52.00035
C         58.22090       62.10505       50.05756
C         57.61177       63.01159       52.21754
C         58.58732       62.73914       51.24784
O         59.87564       63.08148       51.44820
H         54.82052       59.49630       48.67294
H         54.64312       59.71371       51.69313
H         53.83684       62.00568       51.39859
H         54.11439       61.97171       49.62935
H         56.63690       61.25102       48.90537
H         55.54507       62.85400       52.76584
H         58.96638       61.89529       49.30060
H         57.88341       63.50455       53.14214
H         60.17196       63.51432       52.26144
N         52.02090       60.03001       51.70641
C         50.62899       59.53260       51.65784
C         49.74334       60.64978       52.17143
O         49.76232       60.93417       53.36189
C         50.41789       58.21792       52.48823
C         51.32856       57.06969       51.98101
C         48.93529       57.78636       52.46126
C         51.26214       55.81070       52.85376
H         52.47930       59.77612       52.61264
H         50.33682       59.32967       50.60336
H         50.69139       58.43484       53.54528
H         52.38587       57.40336       52.00168
H         51.06480       56.80962       50.93230
H         48.75046       56.91799       53.12346
H         48.27309       58.59261       52.83591
H         48.63296       57.51952       51.42973
H         50.25680       55.34703       52.83639
H         51.97915       55.05347       52.47819
H         51.53545       56.05569       53.90178
N         48.97210       61.36504       51.30554
C         48.10713       62.45469       51.73837
C         46.86199       61.92610       52.42769
O         46.63715       60.72404       52.45137
C         47.69074       63.31850       50.52871
O         46.90585       62.58492       49.62294
H         49.05554       61.16590       50.29960
H         48.68183       63.11165       52.42858
H         48.59958       63.73079       50.03082
H         47.10149       64.19875       50.86051
H         47.49341       62.31759       48.86925
N         45.97523       62.80013       52.97528
C         44.67344       62.39918       53.48942
C         43.81176       61.88338       52.35298
O         43.22312       60.81937       52.48056
C         43.96996       63.59709       54.13920
H         46.22093       63.80228       52.98690
H         44.78987       61.62498       54.28119
H         42.97954       63.28595       54.53692
H         44.57984       63.97762       54.98585
H         43.81891       64.42098       53.40949
N         43.69165       62.61324       51.20464
C         42.80660       62.25413       50.10145
C         43.10862       60.91401       49.43789
O         42.29532       60.51628       48.61418
C         42.82897       63.35980       49.03564
H         44.21804       63.49865       51.13914
H         41.77523       62.19676       50.51514
H         42.54932       64.33399       49.49080
H         43.84683       63.45046       48.59719
H         42.10575       63.14065       48.22144
N         44.21071       60.15424       49.72840
C         44.42337       58.82887       49.13899
C         44.39266       57.71703       50.17877
O         44.18773       56.57439       49.79107
C         45.71951       58.76505       48.30391
C         46.99914       58.93744       49.13815
C         48.22361       58.79579       48.28020
O         48.44916       57.74629       47.69867
O         49.08639       59.82075       48.15684
H         44.90804       60.51730       50.38900
H         43.59127       58.60332       48.43729
H         45.68416       59.54868       47.51565
H         45.75722       57.77307       47.80068
H         47.03991       58.16464       49.93101
H         47.00085       59.93364       49.62104
N         44.61597       57.95000       51.50321
C         44.58205       56.88907       52.48479
H         43.56308       56.44976       52.52610
H         45.31959       56.10069       52.22282
H         44.83688       57.29409       53.48738
H         44.84068       58.89332       51.83940
Ca        51.85962       58.38547       48.08096
O         51.31721       62.18389       47.49411
H         51.31108       62.63977       48.37314
H         51.05381       62.88588       46.84806
O         49.47417       60.64859       45.35099
H         49.45452       61.62972       45.22248
H         49.30831       60.27646       44.44890

Ca 1.0



