%chk=holoCaM.loop3.water2.frame425.chk
%nprocshared=20
%mem=10GB
%nosave
#b3lyp/svp scf=(tight,noincore,xqc) Test 
#IOP(5/87=12) Density=Current Pop=(MK,readradii) iop(6/33=2) iop(6/42=6)

holoCaM.loop3.water2.frame425 

   0  1 
C         -6.22710       87.06568       80.29723
C         -6.45767       86.19984       81.49521
O         -7.09210       85.16189       81.36319
H         -5.13569       87.15137       80.11243
H         -6.70687       86.62400       79.39737
H         -6.65297       88.07368       80.47718
N         -5.95356       86.56694       82.70799
C         -6.08737       85.74608       83.89976
C         -6.87774       86.49575       84.96053
O         -6.43111       87.53517       85.42525
C         -4.68077       85.32080       84.35506
C         -4.71034       84.27982       85.42197
O         -5.86420       83.93830       86.01120
O         -3.69908       83.64763       85.67146
H         -5.42727       87.45144       82.78167
H         -6.63729       84.81356       83.64504
H         -4.05344       86.18287       84.66621
H         -4.19899       84.84040       83.47338
N         -8.10804       86.03839       85.34010
C         -8.99527       86.76348       86.24787
C         -8.51795       86.77010       87.69413
O         -9.06853       87.54335       88.46604
C        -10.42097       86.16337       86.21152
C        -11.07718       86.27966       84.82511
C        -12.46498       85.62678       84.81782
C        -13.12278       85.75134       83.43761
N        -14.39408       85.02929       83.39799
H         -8.46147       85.18310       84.89140
H         -9.05346       87.81747       85.89448
H        -11.06987       86.70195       86.93713
H        -10.36882       85.09378       86.51647
H        -10.45361       85.77456       84.05740
H        -11.16678       87.35428       84.55436
H        -13.11729       86.10457       85.58060
H        -12.36111       84.55299       85.07644
H        -12.44727       85.33586       82.65880
H        -13.29431       86.82592       83.20654
H        -14.82682       85.14886       82.45384
H        -14.23020       84.00917       83.56451
H        -15.04692       85.40425       84.12362
N         -7.55473       85.91900       88.15392
C         -7.10878       85.88954       89.54587
C         -5.62542       86.21011       89.67425
O         -5.15834       86.33377       90.79853
C         -7.38498       84.50268       90.16619
C         -8.84065       84.12319       90.12876
O         -9.41684       83.97929       89.06211
O         -9.50875       83.90454       91.27724
H         -7.14765       85.23565       87.50887
H         -7.65397       86.65508       90.14043
H         -7.05143       84.50968       91.22744
H         -6.80175       83.72457       89.62708
N         -4.81420       86.34410       88.58510
C         -3.39860       86.64626       88.67172
C         -2.64236       85.61785       89.47663
O         -1.94433       86.00165       90.40460
H         -5.19183       86.22456       87.63680
H         -3.25628       87.65707       89.11274
H         -2.97680       86.66009       87.64282
N         -2.72983       84.29127       89.17208
C         -1.95762       83.26001       89.86705
C         -1.03699       82.49456       88.92282
O         -0.23590       81.70800       89.40882
C         -2.88225       82.29549       90.64141
C         -3.78953       81.46742       89.75853
N         -3.69779       80.11662       89.74939
O         -4.62562       82.01634       89.05844
H         -3.37040       84.01638       88.41424
H         -1.29747       83.74186       90.62079
H         -3.50637       82.87851       91.35252
H         -2.24094       81.61716       91.24608
H         -3.00504       79.62657       90.33390
H         -4.32435       79.55531       89.15403
N         -1.10247       82.65032       87.56942
C         -0.23692       81.96827       86.63014
C         -0.97932       80.94855       85.79709
O         -0.37853       80.46014       84.85055
H         -1.79754       83.27642       87.15253
H          0.60056       81.43965       87.13329
H          0.20719       82.74200       85.96663
N         -2.23784       80.50713       86.11817
C         -2.91233       79.45852       85.36127
C         -4.30871       79.95061       84.93816
O         -5.18341       79.77537       86.02465
C         -3.04243       78.14949       86.18716
C         -1.73403       77.59110       86.67532
C         -0.99194       78.25898       87.66641
C         -1.26348       76.36901       86.17342
C          0.20620       77.71966       88.13451
C         -0.06419       75.83052       86.64333
C          0.67531       76.50530       87.62576
O          1.83110       75.99354       88.09178
H         -2.71482       80.87640       86.95400
H         -2.32784       79.22206       84.44618
H         -3.55447       77.40605       85.53668
H         -3.67745       78.29126       87.08787
H         -1.34159       79.18944       88.09283
H         -1.82505       75.83182       85.41895
H          0.76495       78.24453       88.89912
H          0.28536       74.88710       86.24540
H          2.18492       75.15248       87.77012
N         -4.80508       79.22359       83.76169
C         -6.17691       79.61759       83.36372
C         -7.02034       78.36822       83.21835
O         -6.48717       77.26764       83.20658
C         -6.25126       80.52543       82.08333
C         -5.72942       79.81245       80.80253
C         -5.54119       81.86930       82.32677
C         -5.97274       80.60314       79.51278
H         -4.12742       79.31497       82.97400
H         -6.65673       80.18465       84.18907
H         -7.32458       80.75865       81.91275
H         -6.26302       78.84537       80.68627
H         -4.64326       79.60200       80.87514
H         -5.95817       82.36343       83.22712
H         -4.45072       81.72747       82.47126
H         -5.70168       82.56745       81.47987
H         -5.41411       81.56062       79.50712
H         -5.61758       80.00744       78.64470
H         -7.05683       80.80555       79.37975
N         -8.37311       78.48145       83.14802
C         -9.28267       77.35226       83.01638
C        -10.12760       77.52344       81.76722
O         -9.94941       78.49475       81.05214
C        -10.15774       77.26927       84.27940
O        -10.94650       78.42287       84.42117
H         -8.78784       79.41999       83.21555
H         -8.72343       76.39579       82.93020
H         -9.49585       77.11940       85.16605
H        -10.82885       76.38674       84.24179
H        -10.64789       78.88884       85.24459
N        -11.08623       76.61253       81.44609
C        -11.98226       76.77822       80.30525
C        -12.81332       78.04138       80.45628
O        -12.85364       78.84303       79.53311
C        -12.91147       75.56709       80.18579
H        -11.19757       75.78393       82.04899
H        -11.38828       76.82819       79.36483
H        -12.30830       74.64474       80.04591
H        -13.53670       75.45226       81.09648
H        -13.57618       75.68590       79.30324
N        -13.47629       78.29108       81.62146
C        -14.30410       79.47077       81.86197
C        -13.55599       80.75795       81.57556
O        -14.06508       81.58163       80.82846
C        -14.79353       79.47762       83.31624
H        -13.36765       77.60838       82.38844
H        -15.20059       79.42852       81.20405
H        -15.44609       80.35817       83.49891
H        -15.38075       78.55817       83.52488
H        -13.93499       79.51743       84.02165
N        -12.32795       80.98387       82.11712
C        -11.55694       82.20157       81.87493
C        -11.34592       82.40984       80.38546
O        -11.75325       83.44224       79.87118
C        -10.19623       82.13564       82.59780
C        -10.35367       82.09865       84.12729
C         -9.03188       81.92817       84.80586
O         -8.14100       82.73806       84.62349
O         -8.82545       80.88232       85.62881
H        -11.92302       80.24033       82.70364
H        -12.11768       83.07233       82.27501
H         -9.59021       83.03132       82.33342
H         -9.65232       81.23765       82.24642
H        -11.01098       81.26505       84.44395
H        -10.80927       83.04727       84.46746
N        -10.74143       81.45357       79.62919
C        -10.54151       81.55928       78.19936
H         -9.45858       81.47329       77.97291
H        -11.07968       80.72849       77.69540
H        -10.91611       82.51961       77.78841
H        -10.42081       80.59245       80.08202
Ca        -6.05316       81.78255       86.34554
O         -7.36242       80.64091       89.76176
H         -7.73042       79.76887       90.05246
H         -6.82830       80.95344       90.53467
O         -7.43946       78.37690       87.46266
H         -7.29820       78.01289       86.55265
H         -6.55916       78.28508       87.90734

Ca 1.0



