%chk=holoCaM.loop3.water3.frame197.chk
%nprocshared=20
%mem=10GB
%nosave
#b3lyp/svp scf=(tight,noincore,xqc) Test 
#IOP(5/87=12) Density=Current Pop=(MK,readradii) iop(6/33=2) iop(6/42=6)

holoCaM.loop3.water3.frame197 

   0  1 
C         24.50713       44.09734       93.00015
C         25.91610       43.67609       92.73048
O         26.15440       43.08455       91.68629
H         23.85840       43.19893       93.06010
H         24.43036       44.66547       93.94981
H         24.15968       44.74458       92.16744
N         26.90689       43.93067       93.63396
C         28.29309       43.57583       93.38847
C         28.70227       42.43487       94.29177
O         28.64708       42.55696       95.50732
C         29.18261       44.81311       93.52280
C         30.57626       44.57019       93.03107
O         31.02312       43.33780       92.71135
O         31.29867       45.52979       92.83368
H         26.67220       44.38741       94.52874
H         28.39838       43.24514       92.33640
H         29.19637       45.21771       94.55733
H         28.75012       45.58841       92.85137
N         29.09504       41.26345       93.72165
C         29.41365       40.04872       94.45336
C         30.58955       40.25489       95.39421
O         30.44166       39.97719       96.57585
C         29.65848       38.91302       93.43602
C         29.74192       37.53000       94.08722
C         29.79480       36.43420       93.01350
C         29.79251       35.04001       93.65066
N         29.78972       33.99600       92.62643
H         29.12416       41.21874       92.69219
H         28.51527       39.76044       95.04488
H         30.56622       39.11783       92.82932
H         28.78152       38.89412       92.74918
H         28.82793       37.37255       94.70159
H         30.63479       37.47103       94.74568
H         30.70564       36.56253       92.38834
H         28.89965       36.52366       92.35763
H         28.88478       34.92574       94.28491
H         30.69085       34.92543       94.29625
H         30.64290       34.07551       92.02709
H         29.78694       33.06032       93.09293
H         28.93220       34.07767       92.03244
N         31.76952       40.78006       94.95026
C         32.92121       41.02023       95.82432
C         33.16232       42.50819       96.09273
O         34.12494       42.82320       96.77944
C         34.18466       40.31406       95.27522
C         34.70307       40.81974       93.95577
O         34.12667       41.69898       93.34018
O         35.83411       40.29274       93.45059
H         31.83392       41.05471       93.95955
H         32.73925       40.57085       96.82489
H         33.97818       39.22699       95.17314
H         35.00143       40.43432       96.01978
N         32.29797       43.47370       95.66035
C         32.42884       44.88314       96.01175
C         33.60586       45.61371       95.38442
O         33.80300       46.76726       95.73969
H         31.45157       43.19512       95.15272
H         32.50598       44.95571       97.11903
H         31.50697       45.42389       95.71053
N         34.44031       45.03428       94.47288
C         35.65492       45.69414       93.98333
C         35.41686       46.94692       93.13829
O         36.38677       47.63190       92.84488
C         36.55785       44.67980       93.24057
C         36.03847       44.22453       91.89332
N         36.83451       44.27695       90.80078
O         34.90966       43.77428       91.78760
H         34.25820       44.06378       94.19339
H         36.22048       46.00474       94.88983
H         36.67284       43.78804       93.89363
H         37.56903       45.12126       93.10780
H         37.80124       44.62709       90.86361
H         36.49376       43.93928       89.88895
N         34.17941       47.29508       92.68499
C         33.91154       48.47833       91.87956
C         33.51087       48.13084       90.46028
O         33.15371       49.04174       89.72688
H         33.38128       46.68656       92.89122
H         34.79484       49.14885       91.81713
H         33.09231       49.04884       92.36986
N         33.57960       46.85197       89.98597
C         33.22565       46.46907       88.62070
C         32.10796       45.39622       88.62406
O         31.50835       45.36043       89.87138
C         34.47960       45.89905       87.94074
C         35.50012       46.98199       87.69665
C         36.68661       47.05448       88.44504
C         35.26325       47.93540       86.69445
C         37.61777       48.06781       88.19537
C         36.19956       48.93827       86.43638
C         37.38087       49.00903       87.18773
O         38.29258       49.97276       86.94869
H         33.91246       46.09873       90.60462
H         32.86027       47.35136       88.05008
H         34.24004       45.42219       86.96581
H         34.89158       45.10797       88.60259
H         36.88900       46.34047       89.22753
H         34.35743       47.89025       86.10265
H         38.52563       48.11974       88.78365
H         36.00528       49.65721       85.65107
H         38.16866       50.63508       86.25372
N         31.07795       45.71625       87.62835
C         30.00385       44.70636       87.46824
C         30.13277       44.00925       86.11587
O         30.22170       44.67827       85.09651
C         28.61305       45.40136       87.65741
C         28.43537       45.78481       89.15736
C         27.44874       44.49657       87.19919
C         27.13718       46.52275       89.49225
H         31.49290       46.01981       86.71719
H         30.06351       43.91926       88.25356
H         28.58253       46.31515       87.02392
H         29.26876       46.44635       89.46841
H         28.47099       44.86260       89.78140
H         27.55037       44.23383       86.12634
H         27.40838       43.56922       87.80203
H         26.47622       45.02169       87.27901
H         27.12435       46.75988       90.57806
H         27.07347       47.46995       88.91852
H         26.24312       45.89923       89.28949
N         30.06163       42.64806       86.04659
C         30.10953       41.89014       84.79802
C         28.71955       41.40740       84.43654
O         27.80385       41.64045       85.20231
C         31.06593       40.69820       84.96416
O         30.59766       39.84906       85.98011
H         29.87639       42.12610       86.91308
H         30.46016       42.53831       83.96698
H         32.07659       41.07457       85.23332
H         31.12511       40.13658       84.00555
H         31.16236       39.03435       85.95407
N         28.47490       40.76273       83.25634
C         27.13408       40.29790       82.90111
C         26.69199       39.11981       83.75801
O         25.49389       38.87870       83.84392
C         27.05687       39.91907       81.42115
H         29.24703       40.64307       82.58507
H         26.42991       41.14679       83.05577
H         27.33707       40.79457       80.79687
H         27.74716       39.07909       81.19547
H         26.02012       39.62082       81.15366
N         27.59477       38.32280       84.40039
C         27.20877       37.23770       85.29856
C         26.50287       37.82449       86.50148
O         25.38805       37.43639       86.81477
C         28.45044       36.46338       85.76325
H         28.60156       38.50262       84.26074
H         26.54874       36.51549       84.76758
H         28.96756       36.02068       84.88573
H         29.16759       37.12485       86.29508
H         28.15342       35.63951       86.44696
N         27.11384       38.83159       87.18069
C         26.53286       39.56716       88.29735
C         25.19137       40.16087       87.89527
O         24.23345       40.01334       88.64122
C         27.51430       40.68137       88.72493
C         28.81775       40.10518       89.31411
C         29.81350       41.19451       89.56982
O         29.49412       42.22622       90.36709
O         30.91435       41.15758       89.04300
H         28.03351       39.13408       86.82819
H         26.37449       38.89636       89.17099
H         27.04306       41.33134       89.49495
H         27.74712       41.30427       87.83684
H         29.28473       39.37047       88.62544
H         28.58849       39.58156       90.26632
N         25.04082       40.79326       86.69898
C         23.79432       41.34999       86.21940
H         22.97685       41.26137       86.96355
H         23.94317       42.42300       85.97709
H         23.49075       40.81675       85.29291
H         25.84027       40.84816       86.06522
Ca        32.09553       43.39092       90.78234
O         35.83292       40.97227       90.10600
H         35.34479       40.97316       90.96588
H         36.73669       41.30442       90.33480
O         32.63717       39.79389       91.10097
H         33.47773       39.29685       90.94034
H         31.92816       39.19181       90.76162
O         33.85537       42.48774       88.31426
H         34.82147       42.69356       88.24785
H         33.53041       42.52350       87.37996

Ca 1.0



