%chk=holoCaM.loop2.water2.frame423.chk
%nprocshared=20
%mem=10GB
%nosave
#b3lyp/svp scf=(tight,noincore,xqc) Test 
#IOP(5/87=12) Density=Current Pop=(MK,readradii) iop(6/33=2) iop(6/42=6)

holoCaM.loop2.water2.frame423 

   -2  1 
C        -10.56015      117.89224       56.11839
C         -9.80655      118.90161       55.31364
O         -8.68037      118.63828       54.91637
H        -11.50019      117.62661       55.59322
H         -9.95038      116.97815       56.27356
H        -10.80602      118.33077       57.10965
N        -10.36452      120.11833       55.08273
C         -9.66956      121.19696       54.40696
C         -9.18661      122.13836       55.48248
O        -10.00103      122.63603       56.24889
C        -10.61817      121.86114       53.40243
C         -9.97020      122.93650       52.59287
O        -10.64782      123.53782       51.78638
O         -8.66465      123.23868       52.72111
H        -11.28865      120.32122       55.49682
H         -8.79042      120.80584       53.84950
H        -11.48625      122.29719       53.94398
H        -10.99843      121.09443       52.69225
N         -7.85202      122.36030       55.64287
C         -7.29393      123.03319       56.80516
C         -6.70846      124.40292       56.50622
O         -6.38785      125.08956       57.46592
C         -6.27353      122.10034       57.46326
H         -7.20362      121.95245       54.95991
H         -8.10354      123.22094       57.54319
H         -5.87332      122.54358       58.39769
H         -6.76243      121.13276       57.71330
H         -5.43181      121.89421       56.76646
N         -6.59654      124.90495       55.23913
C         -6.28099      126.31118       54.97499
C         -7.42757      127.00290       54.22300
O         -7.31958      128.19402       53.96526
C         -4.90563      126.47173       54.29228
C         -4.79427      125.94186       52.89371
O         -5.84862      125.38927       52.26890
O         -3.73005      126.04094       52.30424
H         -6.79944      124.29648       54.43552
H         -6.17745      126.85909       55.93709
H         -4.14008      125.97180       54.92673
H         -4.65474      127.55530       54.25854
N         -8.58469      126.34120       53.90703
C         -9.76602      126.97676       53.34573
C         -9.60693      127.45231       51.92081
O         -9.77059      128.63969       51.68037
H         -8.69721      125.35241       54.16167
H        -10.06498      127.81766       54.00819
H        -10.59981      126.24130       53.34449
N         -9.34283      126.56736       50.91507
C         -9.25900      126.95209       49.50117
C        -10.24192      126.18906       48.60243
O        -10.27739      126.48024       47.41480
C         -7.78861      126.83914       49.02013
C         -7.18654      125.42077       48.83720
N         -7.24719      125.00070       47.44295
O         -7.84347      124.47941       49.63476
H         -9.18672      125.58838       51.18276
H         -9.52436      128.02787       49.40461
H         -7.16863      127.38289       49.76305
H         -7.67394      127.40056       48.06526
H         -6.69293      125.67892       46.87087
H         -6.73523      124.09574       47.36996
N        -11.06550      125.20915       49.08687
C        -12.00509      124.44830       48.27438
C        -11.64948      122.97386       48.21636
O        -12.55262      122.15542       48.11036
H        -11.03993      124.98125       50.07860
H        -12.04238      124.82271       47.23032
H        -13.02880      124.56946       48.69369
N        -10.34657      122.57550       48.15194
C         -9.91024      121.19756       47.90857
C         -8.96750      120.71325       49.00185
O         -8.65998      121.48800       49.89716
C         -9.18084      121.16852       46.54297
C        -10.14538      121.55557       45.40900
O         -8.08944      122.05633       46.59010
H         -9.61651      123.29936       48.21142
H        -10.77772      120.50184       47.87540
H         -8.80454      120.14244       46.34257
H         -7.73397      122.16877       45.67122
H        -10.53247      122.58746       45.54816
H         -9.62054      121.51204       44.43184
H        -10.99979      120.84757       45.37862
N         -8.45074      119.44190       48.98293
C         -7.42911      118.98970       49.92939
C         -6.15727      118.57918       49.18867
O         -6.23781      118.07644       48.07525
C         -7.93400      117.90926       50.93551
C         -8.10318      116.49353       50.33411
C         -9.22246      118.39885       51.62181
C         -8.41302      115.44361       51.40992
H         -8.76565      118.78268       48.25439
H         -7.14699      119.84474       50.57954
H         -7.14850      117.82076       51.71540
H         -7.13974      116.18880       49.87265
H         -8.89129      116.47754       49.55273
H         -9.06276      119.40731       52.04830
H        -10.06042      118.45011       50.89486
H         -9.52002      117.73579       52.45790
H         -7.64582      115.49089       52.20845
H         -9.40787      115.60211       51.87131
H         -8.40382      114.42589       50.96740
N         -4.94092      118.76599       49.77100
C         -3.64717      118.46249       49.16990
C         -3.03327      117.26062       49.90415
O         -3.67568      116.72774       50.79899
C         -2.78405      119.75264       49.29978
C         -1.54362      119.87433       48.45105
O         -0.73795      120.93885       48.62838
O         -1.30169      119.09286       47.54673
H         -4.91787      119.16698       50.70916
H         -3.77985      118.20133       48.09725
H         -2.51979      119.88419       50.37173
H         -3.39604      120.63021       49.01170
N         -1.80810      116.76457       49.57558
C         -1.16106      115.62133       50.21870
C         -1.02579      115.79409       51.73063
O         -1.46688      114.88870       52.41974
C          0.18028      115.31897       49.51085
C          1.05167      114.31034       50.22061
C          0.58884      113.01782       50.52248
C          2.36289      114.67062       50.58059
C          1.42788      112.10659       51.17502
C          3.19814      113.75597       51.22297
C          2.73174      112.47461       51.52119
H         -1.29609      117.21134       48.81214
H         -1.79781      114.71948       50.06418
H          0.75579      116.25254       49.37334
H         -0.05012      114.95181       48.48747
H         -0.41681      112.71648       50.25922
H          2.74466      115.65941       50.35675
H          1.06967      111.11312       51.41071
H          4.20791      114.04294       51.48692
H          3.38236      111.76810       52.01967
N         -0.45821      116.87748       52.34863
C         -0.45748      117.04978       53.79806
C         -1.85535      116.94432       54.38565
O         -2.05176      116.23241       55.36180
C          0.07473      118.47939       53.99518
C          0.99192      118.63405       52.80849
C          0.16122      118.00669       51.69243
H          0.23734      116.30914       54.25363
H         -0.73741      119.22620       53.84314
H          0.53135      118.66589       54.99126
H          1.33732      119.66942       52.60500
H          1.88164      117.98675       52.98842
H         -0.63424      118.68952       51.32439
H          0.85944      117.73641       50.88436
N         -2.87607      117.65313       53.82397
C         -4.22972      117.71074       54.37049
C         -4.95957      116.36605       54.25949
O         -6.00618      116.21367       54.87253
C         -5.04330      118.83857       53.67838
C         -4.31383      120.21120       53.73325
C         -5.02948      121.35075       53.05372
O         -5.27927      122.36110       53.68519
O         -5.32823      121.31591       51.74076
H         -2.65245      118.20347       52.98373
H         -4.13903      117.97918       55.44583
H         -6.04397      118.92611       54.15247
H         -5.19524      118.53197       52.63781
H         -3.32848      120.16079       53.23670
H         -4.14625      120.47088       54.80009
N         -4.47302      115.35144       53.48829
C         -5.08311      114.04213       53.39275
H         -6.12427      114.11344       53.03126
H         -4.51138      113.41504       52.67216
H         -5.06517      113.54192       54.38243
H         -3.63411      115.50505       52.93058
Ca        -6.48123      123.04284       50.80663
O         -4.06178      124.83946       49.20852
H         -4.30631      124.66497       50.15060
H         -3.18557      124.39318       49.09769
O         -5.60414      121.98902       48.25984
H         -5.56156      121.02812       48.03291
H         -4.73490      122.35755       47.96305

Ca 1.0



