%chk=holoCaM-CaMKII.loop1.water2.frame19.chk
%nprocshared=20
%mem=10GB
%nosave
#b3lyp/svp scf=(tight,noincore,xqc) Test 
#IOP(5/87=12) Density=Current Pop=(MK,readradii) iop(6/33=2) iop(6/42=6)

holoCaM-CaMKII.loop1.water2.frame19 

   0  1 
C         34.92490       53.48567       18.57941
C         35.44535       52.61848       17.47847
O         34.70823       52.36681       16.53815
H         34.03223       53.00813       19.03258
H         35.69186       53.64565       19.36482
H         34.63846       54.47219       18.15597
N         36.72449       52.15252       17.49916
C         37.27080       51.38249       16.39514
C         36.64404       49.99826       16.33722
O         36.73222       49.29998       17.33936
C         38.79680       51.22783       16.53253
C         39.37909       50.81231       15.21818
O         40.56312       50.55018       15.12923
O         38.61339       50.87630       14.11128
H         37.34113       52.41810       18.28262
H         37.06604       51.97287       15.48042
H         39.04245       50.49994       17.33770
H         39.27127       52.19976       16.78802
N         36.00991       49.52298       15.21827
C         35.30275       48.24112       15.21895
C         35.90666       47.17593       14.30452
O         35.42210       46.05428       14.37981
C         33.81034       48.44931       14.86895
C         33.09893       49.55947       15.67157
C         33.22153       49.46818       17.20312
C         32.66812       48.16981       17.79863
N         32.86182       48.15259       19.24912
H         35.98413       50.10085       14.36634
H         35.34504       47.79817       16.23647
H         33.27101       47.48864       15.01543
H         33.72014       48.71996       13.79337
H         32.02501       49.56630       15.38626
H         33.52291       50.53434       15.35651
H         32.68067       50.33202       17.64736
H         34.27971       49.56915       17.49637
H         33.19582       47.29523       17.36186
H         31.58507       48.08561       17.56287
H         32.36476       48.95957       19.69131
H         32.47952       47.26084       19.63746
H         33.88284       48.20564       19.47413
N         36.94146       47.40867       13.43641
C         37.53914       46.33927       12.62185
C         39.03157       46.12863       12.92461
O         39.62485       45.24228       12.32596
C         37.20520       46.53128       11.12305
C         37.83902       47.70779       10.45467
O         38.73447       48.45717       11.10383
O         37.57163       47.96321        9.29163
H         37.31697       48.36315       13.34338
H         37.06064       45.36714       12.87092
H         36.10037       46.62538       11.03241
H         37.51528       45.62591       10.55709
N         39.67021       46.82025       13.91786
C         40.98510       46.45894       14.43565
C         42.17906       46.90064       13.61281
O         42.99117       46.06209       13.25041
H         39.14782       47.52152       14.46094
H         41.01409       45.36317       14.62557
H         41.10970       46.95349       15.42345
N         42.39975       48.22414       13.37888
C         43.63208       48.77508       12.79896
C         44.29342       49.81414       13.72867
O         45.31195       50.36968       13.34009
C         43.33436       49.43079       11.42682
C         42.21857       50.41981       11.53038
O         42.20039       51.22734       12.44083
O         41.13770       50.31526       10.74989
H         41.66135       48.88120       13.66472
H         44.38243       47.97418       12.62426
H         43.04101       48.65326       10.69003
H         44.24972       49.93228       11.04620
N         43.76941       50.15543       14.94325
C         44.30370       51.21580       15.78887
C         44.17705       52.58149       15.13615
O         45.15175       53.31215       15.10194
H         42.94258       49.66246       15.30293
H         45.35678       51.00053       16.07357
H         43.70185       51.24834       16.72415
N         42.96854       52.99052       14.65615
C         42.63450       54.30086       14.06950
C         41.11091       54.41700       13.87080
O         40.40573       53.41754       13.90231
C         43.34393       54.63087       12.71150
C         44.81461       55.06999       12.77376
O         43.19260       53.58775       11.78853
H         42.21001       52.31264       14.78847
H         42.89309       55.07941       14.82043
H         42.83672       55.52640       12.29133
H         43.87632       52.90027       12.00777
H         44.93203       55.92573       13.47041
H         45.50041       54.25095       13.04639
H         45.13139       55.39808       11.76009
N         40.52736       55.64614       13.75281
C         39.07766       55.85451       13.73660
C         38.68540       56.67595       12.51571
O         39.19659       57.77489       12.34709
C         38.64567       56.54996       15.06520
C         39.03167       55.65790       16.27939
C         37.12910       56.83536       15.07173
C         38.81444       56.32771       17.63681
H         41.13249       56.48188       13.77451
H         38.53801       54.88445       13.70025
H         39.18801       57.51839       15.14449
H         40.11313       55.41420       16.23460
H         38.46263       54.70198       16.24333
H         36.85249       57.49716       14.22967
H         36.55106       55.88973       14.99315
H         36.81821       57.36936       15.99059
H         37.74674       56.55503       17.82262
H         39.15513       55.64120       18.44068
H         39.41051       57.26321       17.69681
N         37.74169       56.21402       11.64340
C         37.26538       56.98132       10.49048
C         36.08668       57.85953       10.88400
O         35.65054       57.80375       12.01955
C         36.84967       56.02388        9.33991
C         38.01283       55.14493        8.88527
O         35.78906       55.20537        9.76074
H         37.28778       55.31095       11.84743
H         38.07778       57.64506       10.11998
H         36.52239       56.63801        8.47013
H         35.35651       54.84257        8.94407
H         38.34000       54.49377        9.71883
H         37.68664       54.49736        8.04369
H         38.86303       55.77120        8.54441
N         35.50727       58.69709        9.97992
C         34.30019       59.47249       10.27081
C         33.13761       58.53645       10.56885
O         32.45159       58.72777       11.56282
C         33.92967       60.40858        9.09077
C         34.99393       61.49289        8.87900
O         33.75622       59.66975        7.90827
H         35.92252       58.75869        9.03878
H         34.46901       60.12809       11.15552
H         32.97397       60.91991        9.35837
H         33.23884       60.24220        7.28334
H         35.11355       62.09571        9.80466
H         35.97463       61.05020        8.60935
H         34.67916       62.17432        8.06060
N         32.88694       57.48073        9.74547
C         31.78497       56.53582        9.91807
C         31.80904       55.90678       11.30058
O         30.80662       55.98399       11.99738
C         31.84193       55.44680        8.81986
C         31.60273       56.04706        7.42016
C         31.69187       54.98303        6.31879
C         31.48161       55.56828        4.90901
N         30.14518       56.14186        4.73305
H         33.53951       57.33387        8.96205
H         30.81612       57.07361        9.80932
H         31.04735       54.69163        9.00951
H         32.82664       54.93061        8.85477
H         32.35250       56.83219        7.19258
H         30.59510       56.51148        7.41986
H         30.94384       54.18198        6.50213
H         32.70620       54.52682        6.34898
H         31.61803       54.74683        4.17148
H         32.25152       56.34433        4.69912
H         29.41329       55.43303        4.96866
H         30.02453       56.99286        5.32652
H         30.02751       56.42943        3.73488
N         32.93011       55.30029       11.77701
C         33.02145       54.71488       13.11418
C         32.70109       55.75473       14.17618
O         31.73861       55.56897       14.90782
C         34.43070       54.12546       13.33909
C         34.66161       52.87501       12.47038
C         36.06238       52.34176       12.55755
O         36.92314       52.92465       13.19558
O         36.37736       51.21111       11.89919
H         33.75738       55.28345       11.16649
H         32.27631       53.89258       13.20869
H         34.55274       53.82749       14.40196
H         35.18972       54.90497       13.10948
H         34.46224       53.09277       11.40154
H         33.95851       52.08269       12.80834
N         33.45442       56.87940       14.30433
C         33.18047       57.93317       15.25924
H         32.28077       57.72493       15.87484
H         34.05306       58.05582       15.93377
H         33.01498       58.88514       14.71127
H         34.26195       57.00389       13.68997
Ca        39.41710       50.73728       12.06494
O         40.47909       53.28875       10.41578
H         41.13015       54.03304       10.40391
H         40.32637       53.08519        9.45909
O         37.76559       51.69583        9.34385
H         38.13005       51.86815        8.44011
H         38.12311       50.80590        9.58770

Ca 1.0



