%chk=holoCaM.loop1.water2.frame408.chk
%nprocshared=20
%mem=10GB
%nosave
#b3lyp/svp scf=(tight,noincore,xqc) Test 
#IOP(5/87=12) Density=Current Pop=(MK,readradii) iop(6/33=2) iop(6/42=6)

holoCaM.loop1.water2.frame408 

   0  1 
C        116.40768       86.38181       17.69692
C        117.83291       86.80781       17.87958
O        118.57836       86.80128       16.91002
H        115.91269       87.05151       16.96248
H        116.38093       85.33904       17.31899
H        115.84488       86.42869       18.65289
N        118.28239       87.21751       19.09826
C        119.64839       87.67226       19.30905
C        120.62140       86.51118       19.12704
O        120.58575       85.56030       19.89496
C        119.76676       88.32526       20.69905
C        121.07716       89.00515       20.96033
O        121.21415       89.70844       22.09362
O        121.99443       88.97291       20.15617
H        117.61565       87.24912       19.88574
H        119.84918       88.47723       18.56459
H        119.57361       87.57737       21.49862
H        118.98742       89.11612       20.76804
N        121.49216       86.52188       18.08293
C        122.43532       85.44933       17.77079
C        123.52270       85.27148       18.82252
O        123.78384       84.14209       19.21190
C        123.12339       85.73634       16.40942
C        122.16027       85.51470       15.23026
C        122.82833       85.79639       13.87459
C        121.95735       85.26582       12.72513
N        122.55088       85.55869       11.42061
H        121.44741       87.32775       17.44208
H        121.89571       84.48116       17.66571
H        123.96293       85.01952       16.26714
H        123.55199       86.76162       16.40018
H        121.24937       86.14537       15.32320
H        121.85397       84.44592       15.26363
H        123.81171       85.28083       13.82211
H        122.99905       86.88761       13.76337
H        120.93784       85.70824       12.77322
H        121.86710       84.16206       12.83842
H        122.00117       85.07136       10.67682
H        122.51442       86.58298       11.23478
H        123.54312       85.23145       11.38122
N        124.25698       86.33337       19.24803
C        125.53168       86.21987       19.96696
C        125.50740       86.64010       21.43768
O        126.56369       86.56931       22.05339
C        126.62529       87.00108       19.18975
C        126.35452       88.48418       19.09098
O        125.22362       88.99123       19.61558
O        127.15508       89.21801       18.53629
H        123.93225       87.25370       18.94452
H        125.85413       85.15473       19.98354
H        126.70763       86.58742       18.16152
H        127.60556       86.85108       19.69364
N        124.37077       86.99056       22.10554
C        124.37355       87.14372       23.55786
C        124.83837       88.50208       24.05072
O        125.87188       88.59395       24.69680
H        123.46593       86.96518       21.61352
H        124.98198       86.32886       24.01030
H        123.34282       86.99579       23.94619
N        124.01700       89.57578       23.89761
C        124.22581       90.89219       24.51484
C        122.93396       91.72209       24.55819
O        123.00946       92.94085       24.64172
C        125.40009       91.65336       23.85963
C        125.32360       91.60253       22.36822
O        126.22989       91.06208       21.75318
O        124.24657       92.03402       21.68869
H        123.15211       89.40077       23.38111
H        124.47271       90.75530       25.59079
H        126.35259       91.16555       24.15786
H        125.44789       92.70472       24.21364
N        121.71425       91.11735       24.66853
C        120.46062       91.82035       24.88376
C        119.97607       92.71325       23.75820
O        118.88069       93.23399       23.92241
H        121.65258       90.09063       24.68981
H        120.53306       92.41790       25.81774
H        119.66737       91.05503       25.03700
N        120.68379       92.96743       22.61461
C        120.15923       93.82957       21.55352
C        120.14147       93.11975       20.21126
O        120.70863       92.04415       20.07121
C        120.94775       95.16032       21.46696
C        120.81395       95.99544       22.75007
O        122.29847       94.93715       21.14952
H        121.61960       92.56048       22.48675
H        119.10106       94.09413       21.77003
H        120.51144       95.77945       20.65329
H        122.75173       94.58470       21.95916
H        119.74333       96.21243       22.95386
H        121.24184       95.45915       23.62314
H        121.34930       96.96101       22.62875
N        119.44116       93.67334       19.18214
C        119.30577       93.08824       17.85467
C        119.77022       94.11639       16.82954
O        119.27647       95.23615       16.82625
C        117.83262       92.62286       17.63605
C        117.51007       91.48263       18.64815
C        117.60754       92.13867       16.18915
C        116.08328       90.93756       18.57302
H        118.92760       94.55103       19.36133
H        119.93418       92.17714       17.75363
H        117.15231       93.48510       17.81297
H        117.65828       91.85806       19.68263
H        118.21084       90.63215       18.48896
H        116.54405       91.87835       16.01787
H        117.84835       92.93791       15.45888
H        118.22724       91.24775       15.97153
H        115.34886       91.75073       18.74720
H        115.88371       90.45258       17.59606
H        115.94992       90.16020       19.35592
N        120.70511       93.77249       15.90258
C        121.23692       94.65913       14.87123
C        120.69877       94.23381       13.51442
O        119.84703       93.35900       13.46178
C        122.79386       94.59786       14.89541
C        123.37709       95.11781       16.21599
O        123.25585       93.29720       14.60659
H        121.03617       92.80022       15.89376
H        120.91813       95.71187       15.03351
H        123.20805       95.26667       14.11407
H        123.28700       92.77378       15.44868
H        124.48699       95.06233       16.18095
H        123.08115       96.17580       16.37427
H        123.01332       94.51069       17.06954
N        121.15057       94.80916       12.36450
C        120.78590       94.32333       11.03390
C        121.25677       92.88845       10.85263
O        120.50334       92.07832       10.33354
C        121.38493       95.20576        9.91285
C        120.80244       96.62303        9.94279
O        122.78452       95.25751       10.02061
H        121.82337       95.58598       12.43558
H        119.67959       94.35496       10.90743
H        121.09809       94.74096        8.93874
H        123.13022       95.53293        9.13145
H        121.05827       97.14461       10.88766
H        121.20728       97.21238        9.09356
H        119.69661       96.58203        9.84195
N        122.49416       92.50264       11.28103
C        122.99514       91.13446       11.14985
C        122.17113       90.11402       11.92921
O        122.42625       88.93171       11.76054
C        124.47014       91.04485       11.61241
C        125.48964       92.02415       10.97629
C        125.80837       91.84921        9.47837
C        124.74607       92.38976        8.50288
N        125.19837       92.25242        7.11957
H        123.09644       93.21571       11.71445
H        122.91584       90.82577       10.09804
H        124.84294       90.00775       11.46030
H        124.48517       91.24576       12.70803
H        126.44369       91.82583       11.51395
H        125.23536       93.08419       11.18351
H        126.03995       90.78306        9.26886
H        126.72944       92.44241        9.28385
H        124.55602       93.46280        8.72187
H        123.79174       91.85746        8.58643
H        126.06621       92.81430        6.96491
H        125.38362       91.24557        6.90345
H        124.44886       92.60070        6.47868
N        121.19816       90.47786       12.81131
C        120.40727       89.53564       13.59452
C        118.90374       89.71518       13.37158
O        118.14178       88.94220       13.93501
C        120.72541       89.75105       15.08798
C        122.23573       89.71399       15.36860
C        122.54904       90.00306       16.80380
O        122.21173       91.05669       17.31624
O        123.25795       89.12021       17.52058
H        121.05601       91.46964       12.99760
H        120.67106       88.49076       13.31883
H        120.20058       88.98734       15.70324
H        120.34951       90.75006       15.37727
H        122.75378       90.48550       14.76325
H        122.64071       88.72239       15.09013
N        118.39248       90.71866       12.59792
C        116.97043       90.92676       12.42842
H        116.49087       91.10015       13.41508
H        116.79382       91.82424       11.79509
H        116.50978       90.04685       11.93431
H        119.01099       91.38293       12.12520
Ca       124.40031       91.07012       19.68785
O        124.47761       93.89836       19.09897
H        124.47845       94.02361       20.07904
H        125.04231       94.63489       18.75754
O        125.51679       91.97137       17.05563
H        125.98955       92.26965       16.23960
H        125.96602       91.12667       17.30577

Ca 1.0



