%chk=holoCaM.loop3.water3.frame6.chk
%nprocshared=20
%mem=10GB
%nosave
#b3lyp/svp scf=(tight,noincore,xqc) Test 
#IOP(5/87=12) Density=Current Pop=(MK,readradii) iop(6/33=2) iop(6/42=6)

holoCaM.loop3.water3.frame6 

   0  1 
C         61.08508       55.73970       59.56622
C         60.38545       55.52721       58.25285
O         59.22155       55.15578       58.25467
H         62.12817       56.09346       59.41843
H         60.54089       56.50709       60.15575
H         61.11569       54.78977       60.13870
N         61.04219       55.76126       57.08306
C         60.43045       55.63432       55.76061
C         59.99259       54.18757       55.53401
O         60.83694       53.30976       55.41964
C         61.47704       56.09904       54.72560
C         61.15841       56.18465       53.26067
O         59.93026       56.04330       52.71351
O         62.09790       56.42708       52.52361
H         62.02254       56.07868       57.14665
H         59.55842       56.32215       55.73527
H         62.34245       55.40705       54.81992
H         61.82783       57.11313       55.01574
N         58.66883       53.86582       55.57512
C         58.15664       52.49997       55.54395
C         58.31324       51.88267       54.15977
O         59.08582       50.94459       54.02140
C         56.69527       52.50492       56.05773
C         56.15204       51.12499       56.44715
C         54.77110       51.28279       57.11462
C         54.25180       49.99524       57.77263
N         54.04034       48.91582       56.81072
H         58.01231       54.62434       55.78270
H         58.74999       51.91768       56.28479
H         56.01565       53.00902       55.33834
H         56.69347       53.10829       56.99356
H         56.85059       50.67492       57.18567
H         56.09009       50.46521       55.55595
H         54.03425       51.66335       56.37370
H         54.85169       52.03359       57.93249
H         53.28511       50.22889       58.27302
H         54.96721       49.66323       58.55802
H         53.37504       49.22377       56.06543
H         54.94824       48.62105       56.38668
H         53.63108       48.09544       57.31379
N         57.61373       52.35669       53.08413
C         57.77770       51.81822       51.73043
C         59.11180       52.21183       51.08385
O         59.35826       51.76777       49.97012
C         56.58960       52.20084       50.80719
C         56.36977       53.67140       50.59757
O         55.49435       54.04468       49.83373
O         57.09711       54.58252       51.26254
H         56.91858       53.09815       53.24531
H         57.73905       50.70720       51.79135
H         55.65078       51.77745       51.22460
H         56.75281       51.72981       49.81190
N         60.03111       53.01239       51.70560
C         61.31996       53.34114       51.10844
C         61.24701       54.30770       49.93307
O         62.27955       54.53547       49.31924
H         59.85385       53.35855       52.65660
H         61.81194       52.39469       50.79354
H         61.97316       53.80675       51.87559
N         60.08539       54.92330       49.56248
C         59.96564       55.79565       48.38894
C         60.79572       57.07843       48.45645
O         60.90308       57.75169       47.44076
C         58.47905       56.14654       48.13881
C         57.89991       57.11017       49.15921
N         57.26443       58.23549       48.76003
O         57.99128       56.87273       50.35248
H         59.23839       54.71401       50.09909
H         60.32084       55.19438       47.52251
H         57.89390       55.20151       48.15499
H         58.36851       56.58428       47.12369
H         57.15225       58.45675       47.76096
H         56.85658       58.87680       49.45585
N         61.37069       57.49850       49.61762
C         62.18043       58.70049       49.74990
C         61.58313       59.72630       50.70057
O         62.22765       60.74460       50.90458
H         61.22222       56.94154       50.45938
H         62.32832       59.19901       48.76720
H         63.18219       58.40207       50.12757
N         60.35261       59.56685       51.27926
C         59.71741       60.58564       52.11546
C         59.32307       60.04365       53.48195
O         58.93263       58.89140       53.58941
C         58.44773       61.12924       51.43049
C         58.74896       62.00496       50.23478
C         59.29521       61.48502       49.04728
C         58.47271       63.38176       50.31146
C         59.56873       62.33256       47.96668
C         58.74862       64.22412       49.23469
C         59.30003       63.70329       48.05778
O         59.57327       64.50956       47.01235
H         59.80571       58.71882       51.07884
H         60.38972       61.45621       52.28261
H         57.91315       61.75159       52.18224
H         57.76298       60.30449       51.14598
H         59.50582       60.42877       48.94863
H         58.05044       63.81042       51.21199
H         59.99068       61.92415       47.05698
H         58.53430       65.28202       49.31982
H         59.40430       65.46259       47.04225
N         59.30070       60.89212       54.55692
C         58.84056       60.52445       55.89610
C         57.66806       61.42631       56.27696
O         57.80105       62.63740       56.17066
C         59.96621       60.71273       56.95674
C         61.29910       60.06242       56.51604
C         59.48997       60.12958       58.30961
C         62.45295       60.36579       57.47775
H         59.61193       61.86542       54.41646
H         58.53707       59.45498       55.91924
H         60.15844       61.80335       57.07086
H         61.59716       60.48397       55.53234
H         61.17806       58.96463       56.40590
H         59.32100       59.03321       58.21806
H         60.22112       60.30933       59.12011
H         58.54215       60.59893       58.64006
H         62.28839       59.91038       58.47430
H         63.39675       59.94849       57.07088
H         62.57549       61.46489       57.59415
N         56.51933       60.90766       56.79699
C         55.39120       61.72398       57.24264
C         55.19308       61.58662       58.74531
O         55.92308       60.84868       59.38418
C         54.12512       61.29828       56.48138
O         53.79993       59.96303       56.77039
H         56.45507       59.89292       56.93126
H         55.57481       62.79899       57.03062
H         54.29512       61.44730       55.38901
H         53.26083       61.93626       56.76019
H         53.81390       59.45951       55.91572
N         54.21164       62.28978       59.37887
C         53.91985       62.15957       60.80540
C         53.46056       60.75108       61.13151
O         53.99562       60.14248       62.04774
C         52.82088       63.14852       61.21183
H         53.63949       62.93861       58.81823
H         54.82378       62.41548       61.40320
H         51.88162       62.95647       60.65079
H         52.61252       63.05941       62.30023
H         53.15401       64.18788       61.00625
N         52.47682       60.16830       60.38923
C         51.95253       58.82484       60.61902
C         53.05897       57.79281       60.66450
O         53.12784       57.03332       61.62057
C         50.96380       58.46010       59.50239
H         52.09617       60.70872       59.59611
H         51.40380       58.80238       61.58643
H         51.46710       58.47578       58.51034
H         50.54459       57.44559       59.67132
H         50.12612       59.18880       59.48139
N         53.97704       57.73165       59.66517
C         55.07456       56.77117       59.63232
C         55.92548       56.89185       60.88731
O         56.09964       55.89525       61.57483
C         55.91239       56.97116       58.35303
C         55.07702       56.66349       57.08850
C         55.89158       56.84817       55.84898
O         56.38392       57.93055       55.58575
O         56.13053       55.80984       55.03696
H         53.89680       58.42476       58.90776
H         54.66329       55.73725       59.59633
H         56.78090       56.27780       58.37342
H         56.30329       58.01160       58.32386
H         54.18701       57.31680       57.01732
H         54.72801       55.60931       57.13719
N         56.43610       58.09221       61.27587
C         57.18796       58.29091       62.49928
H         58.17865       58.72863       62.25945
H         56.63514       58.99694       63.15591
H         57.34341       57.34652       63.06169
H         56.25106       58.91902       60.70018
Ca        57.94398       56.09980       53.75043
O         54.68644       56.93498       51.06049
H         53.81212       56.47540       50.99892
H         55.16988       56.65914       50.24283
O         55.78370       59.20519       52.56716
H         55.37220       59.51735       51.72193
H         56.02567       60.03673       53.04661
O         54.36715       54.73598       53.04932
H         53.83318       55.18755       53.75036
H         54.51410       53.82124       53.39678

Ca 1.0



