%chk=holoCaM-CaMKII.loop3.water3.frame158.chk
%nprocshared=20
%mem=10GB
%nosave
#b3lyp/svp scf=(tight,noincore,xqc) Test 
#IOP(5/87=12) Density=Current Pop=(MK,readradii) iop(6/33=2) iop(6/42=6)

holoCaM-CaMKII.loop3.water3.frame158 

   0  1 
C         91.22092       88.76371       46.98762
C         91.20854       87.49124       47.77925
O         90.86075       87.51843       48.94782
H         92.25175       88.96121       46.62346
H         90.53762       88.66888       46.11876
H         90.89516       89.62278       47.61271
N         91.62488       86.33201       47.20437
C         91.70791       85.06091       47.90770
C         93.16696       84.78763       48.18794
O         93.76772       83.88237       47.62534
C         91.00872       83.95497       47.09431
C         91.22037       82.60907       47.73500
O         91.79910       81.73431       47.11640
O         90.80167       82.36799       48.98979
H         91.96924       86.36559       46.23233
H         91.21012       85.10679       48.90192
H         91.42527       83.93187       46.06489
H         89.92297       84.17518       47.02398
N         93.79158       85.56718       49.10556
C         95.17681       85.38816       49.50356
C         95.34259       84.01980       50.15491
O         96.18303       83.24775       49.71590
C         95.61370       86.51626       50.47322
C         95.43929       87.92455       49.85726
C         95.90358       89.02731       50.81891
C         95.54522       90.44413       50.32756
N         96.16749       90.77936       49.04598
H         93.23168       86.30272       49.55989
H         95.82982       85.46423       48.60456
H         96.68535       86.36516       50.72988
H         95.01782       86.46168       51.41022
H         94.36991       88.11158       49.63383
H         96.01228       87.98681       48.90793
H         96.99956       88.94235       50.98315
H         95.39216       88.88858       51.79658
H         95.88426       91.17370       51.09603
H         94.43966       90.53931       50.23660
H         95.79093       90.17275       48.28322
H         95.93733       91.77206       48.81015
H         97.20587       90.67820       49.10972
N         94.54957       83.65585       51.20746
C         94.68687       82.39175       51.93908
C         94.45251       81.12408       51.11251
O         94.75393       80.05011       51.61559
C         93.75483       82.37157       53.17157
C         92.29237       82.30602       52.80391
O         91.77013       83.19033       52.14396
O         91.55031       81.26031       53.21253
H         93.85937       84.34620       51.53740
H         95.73608       82.36016       52.30817
H         93.94007       83.27407       53.79300
H         93.99996       81.48161       53.79151
N         93.92763       81.15254       49.85771
C         93.79549       79.96796       49.02445
C         92.82251       78.92524       49.54115
O         93.23107       77.78075       49.67675
H         93.65276       82.05245       49.44419
H         94.80013       79.51359       48.87846
H         93.44419       80.27053       48.02206
N         91.50798       79.22444       49.77602
C         90.49454       78.20710       50.07250
C         89.38568       78.16041       49.01722
O         88.62358       77.20312       49.03104
C         89.88876       78.38889       51.47844
C         88.95308       79.57349       51.58152
N         87.64785       79.38841       51.89550
O         89.36920       80.70335       51.37856
H         91.22083       80.20207       49.70867
H         90.98535       77.20981       50.06113
H         90.70439       78.47903       52.22749
H         89.31756       77.46622       51.72251
H         87.27148       78.44470       52.07015
H         87.00578       80.19127       51.96450
N         89.20871       79.15769       48.09760
C         88.21270       79.11881       47.04113
C         87.15494       80.19799       47.15467
O         86.39118       80.32166       46.20748
H         89.80785       79.99069       48.11098
H         87.68434       78.14174       46.99877
H         88.75080       79.24627       46.07747
N         86.97724       80.95879       48.28085
C         85.88065       81.92365       48.40544
C         86.41948       83.31023       48.81822
O         87.56844       83.58448       48.10852
C         84.83367       81.39347       49.41499
C         84.24758       80.09190       48.92299
C         84.95957       78.88595       49.05042
C         82.99228       80.08298       48.29347
C         84.43105       77.69683       48.54258
C         82.46896       78.89429       47.77993
C         83.18923       77.69712       47.89923
O         82.70124       76.54598       47.39591
H         87.58148       80.80539       49.10177
H         85.36876       82.05448       47.42656
H         84.00918       82.12673       49.50697
H         85.25579       81.26685       50.43589
H         85.92639       78.86525       49.53732
H         82.42929       81.00090       48.17667
H         84.99295       76.77660       48.64103
H         81.50836       78.90821       47.28118
H         81.85465       76.50862       46.92838
N         85.46875       84.40666       48.57326
C         85.84733       85.63002       49.32838
C         84.67524       86.19361       50.12210
O         83.52136       85.92093       49.80928
C         86.41698       86.76640       48.40112
C         85.43103       87.11466       47.25280
C         87.81451       86.44668       47.84812
C         85.86338       88.31502       46.40399
H         84.51999       84.07870       48.84463
H         86.61561       85.38060       50.09739
H         86.55257       87.66733       49.03714
H         84.43876       87.36331       47.68282
H         85.30844       86.23386       46.58474
H         88.26344       87.34093       47.37096
H         88.49556       86.15675       48.67322
H         87.77697       85.65592       47.07655
H         85.97302       89.21795       47.04111
H         86.81661       88.12027       45.87152
H         85.09187       88.51626       45.63103
N         84.92023       87.05358       51.14514
C         83.87568       87.75755       51.86843
C         83.98504       89.23302       51.55680
O         84.88754       89.62507       50.82608
C         83.98414       87.47307       53.37894
O         85.20213       87.94274       53.89772
H         85.90196       87.26668       51.38684
H         82.86839       87.42516       51.53346
H         83.86185       86.38036       53.56985
H         83.15781       87.97064       53.92871
H         85.80991       87.16210       53.97608
N         83.09215       90.12134       52.05595
C         83.17928       91.55361       51.79945
C         84.49386       92.11355       52.31519
O         85.13976       92.86656       51.60282
C         82.00927       92.28113       52.45848
H         82.32447       89.76377       52.64887
H         83.10226       91.74261       50.70369
H         81.05201       91.88774       52.05298
H         82.02350       92.13695       53.55916
H         82.06365       93.36675       52.22927
N         84.97224       91.72512       53.53279
C         86.23871       92.18360       54.09894
C         87.38992       91.98582       53.13446
O         88.10304       92.94153       52.85815
C         86.53205       91.42128       55.39899
H         84.41944       91.03953       54.06947
H         86.15906       93.26565       54.34243
H         87.48254       91.77886       55.84918
H         85.71248       91.58140       56.13043
H         86.62119       90.32966       55.20458
N         87.61379       90.77150       52.56625
C         88.70176       90.50920       51.62934
C         88.61689       91.44496       50.43380
O         89.57348       92.16692       50.18946
C         88.67829       89.03272       51.18690
C         88.98912       88.09134       52.36704
C         88.91526       86.64849       51.97003
O         89.66375       86.20175       51.11814
O         88.03838       85.83016       52.58021
H         86.96089       90.00867       52.80227
H         89.67750       90.69160       52.13491
H         89.44665       88.88072       50.40490
H         87.68568       88.79312       50.75240
H         88.26762       88.25402       53.19317
H         90.00938       88.30528       52.75315
N         87.49072       91.51493       49.67169
C         87.33118       92.43247       48.56063
H         86.48599       93.12081       48.77521
H         88.23865       93.04679       48.38141
H         87.10348       91.86126       47.63735
H         86.69263       90.91290       49.90154
Ca        89.15418       83.64752       49.68937
O         86.51691       83.21235       52.57719
H         86.16372       83.90482       51.96492
H         86.42764       83.61258       53.47860
O         88.60719       81.46168       54.27076
H         87.99071       81.94947       54.87202
H         88.45073       80.50588       54.47648
O         90.08025       84.30351       54.31718
H         89.39928       84.67158       54.93405
H         90.70113       85.05708       54.15178

Ca 1.0



