%chk=holoCaM.loop4.water3.frame104.chk
%nprocshared=20
%mem=10GB
%nosave
#b3lyp/svp scf=(tight,noincore,xqc) Test 
#IOP(5/87=12) Density=Current Pop=(MK,readradii) iop(6/33=2) iop(6/42=6)

holoCaM.loop4.water3.frame104 

   -3  1 
C         88.74960       -0.43178       49.95647
C         88.69293       -1.46890       48.87814
O         89.73954       -1.98823       48.51764
H         89.39410        0.40921       49.62347
H         87.74014       -0.03716       50.19271
H         89.18358       -0.88118       50.87397
N         87.50735       -1.80744       48.29298
C         87.42447       -2.79117       47.22440
C         86.04711       -2.78238       46.56325
O         85.04624       -2.98516       47.23652
C         87.78210       -4.21610       47.72335
C         87.79108       -5.12086       46.52944
O         88.59451       -4.76058       45.50701
O         87.03286       -6.07405       46.44819
H         86.65013       -1.31504       48.58704
H         88.17060       -2.49759       46.45190
H         87.06524       -4.56199       48.50042
H         88.80155       -4.23612       48.16206
N         85.95499       -2.61203       45.21109
C         84.70972       -2.62669       44.45310
C         84.51617       -3.99365       43.81109
O         83.45665       -4.58210       43.97393
C         84.74212       -1.56704       43.29094
C         85.12427       -0.13184       43.71543
C         83.42075       -1.56262       42.49066
C         84.15089        0.56413       44.65948
H         86.82894       -2.53833       44.67694
H         83.84631       -2.40636       45.12091
H         85.54379       -1.86499       42.57908
H         85.21648        0.48919       42.79645
H         86.11866       -0.15654       44.19349
H         83.20787       -2.56276       42.05899
H         82.56252       -1.28103       43.13466
H         83.48563       -0.85077       41.64030
H         84.06924        0.00702       45.61376
H         84.53425        1.58528       44.87287
H         83.15045        0.67071       44.19339
N         85.47363       -4.49649       42.97757
C         85.22957       -5.55860       42.00613
C         85.94609       -6.88996       42.22332
O         85.76765       -7.76682       41.38886
C         85.50418       -4.98376       40.60011
C         86.91236       -4.53910       40.24134
O         87.98743       -4.56478       41.06559
O         87.08478       -4.10833       39.11243
H         86.35423       -3.97854       42.90626
H         84.15078       -5.82631       42.02126
H         84.83920       -4.10179       40.46319
H         85.20063       -5.74434       39.85024
N         86.70864       -7.15941       43.31528
C         87.31893       -8.46104       43.55984
C         88.26233       -8.90348       42.45752
O         88.05388       -9.97166       41.89969
H         86.81764       -6.43968       44.03617
H         86.51502       -9.22052       43.67868
H         87.88600       -8.42062       44.51471
N         89.32899       -8.13684       42.10229
C         90.31808       -8.52460       41.09535
C         91.73404       -8.56057       41.67339
O         92.67316       -8.75291       40.91297
C         90.21423       -7.61084       39.84866
C         90.44419       -6.13586       40.04932
O         90.68429       -5.61325       41.26285
O         90.39003       -5.39080       39.08438
H         89.44669       -7.23450       42.57906
H         90.11239       -9.54939       40.71443
H         89.19858       -7.73479       39.41408
H         90.94664       -7.97053       39.09254
N         91.96647       -8.42860       43.01317
C         93.29144       -8.45573       43.61425
C         94.13427       -7.22182       43.33484
O         95.24894       -7.17712       43.83425
H         91.17100       -8.36946       43.65881
H         93.82670       -9.37413       43.28920
H         93.17371       -8.50851       44.71899
N         93.68388       -6.18140       42.57339
C         94.45842       -4.97497       42.30019
C         93.71316       -3.72862       42.77313
O         92.61181       -3.83041       43.29475
C         94.75666       -4.87715       40.78753
C         95.58060       -6.06728       40.27470
C         96.02006       -5.83311       38.85069
N         95.64002       -6.66512       37.85451
O         96.74043       -4.87868       38.59556
H         92.75534       -6.23573       42.15241
H         95.43116       -5.00080       42.83829
H         95.34873       -3.95828       40.60036
H         93.80897       -4.80236       40.20874
H         94.97653       -6.99679       40.35536
H         96.49409       -6.18983       40.89608
H         95.03469       -7.47668       38.04226
H         95.95358       -6.49313       36.88731
N         94.28766       -2.50205       42.60708
C         93.69583       -1.23080       43.00669
C         93.45011       -0.37931       41.77064
O         94.35001       -0.20236       40.96198
C         94.64289       -0.52350       44.01888
C         94.26668        0.94886       44.26409
C         94.61815       -1.27237       45.36165
H         95.21961       -2.45251       42.17098
H         92.71886       -1.37636       43.51232
H         95.67895       -0.52661       43.61330
H         94.96719        1.40715       44.99411
H         94.35400        1.53569       43.32548
H         93.23430        1.03815       44.65434
H         93.59321       -1.24623       45.79609
H         94.91895       -2.33241       45.23364
H         95.31345       -0.79583       46.08454
N         92.24843        0.25132       41.62617
C         91.91181        1.15899       40.53500
C         91.92981        2.59168       41.06126
O         92.19316        2.79158       42.23753
C         90.52628        0.73227       39.98415
C         90.01787        1.53258       38.81197
N         90.69646        1.56089       37.64246
O         88.97019        2.15253       38.91517
H         91.54859        0.14470       42.37486
H         92.67581        1.09655       39.73059
H         89.78410        0.79509       40.81267
H         90.58367       -0.32641       39.65762
H         91.57638        1.03819       37.53029
H         90.33748        2.10841       36.84603
N         91.73162        3.64979       40.22562
C         91.75872        5.04042       40.67110
C         90.61483        5.36626       41.62117
O         90.84623        6.11122       42.56249
C         91.85923        6.00419       39.46876
C         90.69626        5.95583       38.50943
C         89.46453        6.54239       38.84060
C         90.84904        5.34372       37.25344
C         88.40291        6.51265       37.93248
C         89.78426        5.30569       36.35148
C         88.55957        5.89165       36.68450
O         87.54551        5.85726       35.79744
H         91.61385        3.46403       39.22273
H         92.71261        5.20441       41.22372
H         92.78769        5.71310       38.92781
H         92.01250        7.05192       39.80807
H         89.32945        7.03739       39.79364
H         91.79059        4.88640       36.97423
H         87.46187        6.97664       38.19836
H         89.91467        4.82359       35.39089
H         86.68614        6.26100       35.98373
N         89.35852        4.84675       41.45860
C         88.27727        5.11220       42.41376
C         88.50689        4.45124       43.78013
O         87.71215        4.68580       44.67864
C         86.89667        4.70314       41.84705
C         86.69473        3.18901       41.67378
C         85.31841        2.90341       41.14294
O         85.17719        2.32783       40.07607
O         84.23131        3.27177       41.84888
H         89.16964        4.27096       40.62563
H         88.22774        6.21517       42.55664
H         86.74966        5.21369       40.86937
H         86.11368        5.07989       42.54308
H         86.79873        2.67419       42.65165
H         87.45427        2.77955       40.97846
N         89.56617        3.61870       44.00551
C         89.85248        2.95652       45.27428
C         91.11618        3.52161       45.91793
O         91.43740        3.10392       47.02252
C         90.06433        1.44526       45.03042
C         88.89532        0.77250       44.30318
C         89.18370       -0.66783       43.96755
O         90.32349       -1.26352       44.36544
O         88.38909       -1.29895       43.29216
H         90.21478        3.43172       43.24254
H         89.01359        3.11267       45.98680
H         90.24962        0.92637       45.99760
H         90.96480        1.32923       44.39179
H         88.71698        1.29708       43.34183
H         87.98510        0.84116       44.93254
N         91.88689        4.46068       45.29442
C         93.09012        5.03250       45.85843
H         93.94719        4.81108       45.18757
H         92.96921        6.13451       45.92602
H         93.31587        4.63688       46.86914
H         91.63486        4.79867       44.36286
Ca        88.50891       -4.92631       43.25176
O         91.10797       -3.73949       46.12786
H         91.22014       -2.77587       46.31825
H         92.02329       -4.11272       46.16980
O         90.67828       -6.37656       45.00170
H         89.90727       -6.97936       45.15578
H         91.37780       -6.70644       45.61775
O         90.64251       -2.61046       41.08492
H         91.45224       -2.98883       40.65861
H         89.96680       -2.59501       40.36126

Ca 1.0



