%chk=holoCaM-CaMKII.loop1.water2.frame465.chk
%nprocshared=20
%mem=10GB
%nosave
#b3lyp/svp scf=(tight,noincore,xqc) Test 
#IOP(5/87=12) Density=Current Pop=(MK,readradii) iop(6/33=2) iop(6/42=6)

holoCaM-CaMKII.loop1.water2.frame465 

   0  1 
C         61.48868       81.84600       47.24835
C         61.51343       83.19291       46.60372
O         60.66255       83.44139       45.76590
H         60.50392       81.70526       47.74425
H         61.62146       81.06621       46.47078
H         62.28861       81.74779       48.00966
N         62.42739       84.13453       46.97600
C         62.39864       85.49415       46.46031
C         63.02982       85.57120       45.06150
O         64.19882       85.91715       44.95289
C         63.07273       86.46517       47.47208
C         62.61558       87.87681       47.23532
O         61.63573       88.07657       46.33590
O         63.02885       88.79272       47.92437
H         63.07930       83.90913       47.74288
H         61.32911       85.78730       46.42851
H         64.18023       86.36441       47.44500
H         62.73533       86.22169       48.50176
N         62.33535       85.17896       43.95243
C         62.95372       85.01001       42.63474
C         63.12459       86.31406       41.86161
O         63.76403       86.27125       40.81937
C         62.14818       84.00202       41.78680
C         62.02137       82.63753       42.49040
C         61.16318       81.66431       41.67662
C         60.82636       80.37962       42.45515
N         62.01409       79.60469       42.81535
H         61.35985       84.88505       44.07022
H         63.96353       84.56200       42.78326
H         62.65211       83.84951       40.80619
H         61.13468       84.42054       41.60177
H         61.52931       82.76967       43.47095
H         63.03399       82.21200       42.66055
H         61.67361       81.41977       40.72001
H         60.19529       82.15849       41.44058
H         60.16353       79.75370       41.81841
H         60.26153       80.64134       43.37862
H         62.60740       80.13194       43.49485
H         61.70805       78.71722       43.27607
H         62.56602       79.37019       41.95916
N         62.62166       87.50497       42.30559
C         62.91200       88.78615       41.64941
C         63.90777       89.59246       42.48257
O         64.37270       90.61779       42.00453
C         61.61382       89.56786       41.29570
C         60.79668       89.97580       42.48830
O         61.27673       89.73106       43.71020
O         59.71275       90.51889       42.35050
H         62.08309       87.51225       43.18177
H         63.43070       88.59975       40.68470
H         60.98657       88.92031       40.64566
H         61.87087       90.48696       40.72628
N         64.33481       89.15286       43.70636
C         65.42413       89.75014       44.45152
C         65.17422       91.17935       44.83863
O         65.96522       92.02915       44.45537
H         63.93017       88.30746       44.12531
H         66.35081       89.67900       43.84125
H         65.59007       89.16445       45.38296
N         64.11781       91.51618       45.63071
C         63.89357       92.88278       46.10100
C         63.97890       92.99372       47.62641
O         63.88682       94.10868       48.12224
C         62.57861       93.44439       45.50901
C         61.32239       92.76055       45.95776
O         61.36551       91.78006       46.86588
O         60.24411       93.10816       45.50448
H         63.46402       90.77126       45.91508
H         64.69597       93.54629       45.71433
H         62.63913       93.35980       44.40181
H         62.48698       94.51983       45.76988
N         64.17007       91.90379       48.43408
C         64.32796       91.97602       49.88172
C         63.14948       91.39497       50.64364
O         63.21089       91.36380       51.86272
H         64.22095       90.96421       48.02244
H         64.43547       93.02829       50.22294
H         65.26127       91.44023       50.15799
N         62.00583       91.01818       50.00218
C         60.76300       90.67172       50.68329
C         60.13566       89.41960       50.07823
O         60.27098       89.19794       48.88533
C         59.78563       91.87068       50.57520
C         60.32025       93.11924       51.30298
O         59.49557       92.17414       49.23350
H         61.96600       91.10476       48.98716
H         60.93529       90.49539       51.76746
H         58.83126       91.59693       51.07427
H         60.23039       92.73284       48.86928
H         61.27303       93.47061       50.85062
H         59.58142       93.94433       51.22593
H         60.49741       92.89543       52.37520
N         59.35396       88.60143       50.84527
C         58.67643       87.40936       50.33110
C         57.17461       87.64449       50.38528
O         56.68191       88.10810       51.40278
C         59.05087       86.13488       51.14984
C         60.58649       85.97095       51.26942
C         58.42043       84.88603       50.48795
C         61.00505       84.76313       52.11533
H         59.21147       88.84508       51.83644
H         58.97745       87.21344       49.28050
H         58.64017       86.24205       52.17859
H         61.00170       86.87185       51.76923
H         61.04592       85.88612       50.26179
H         58.59536       83.96884       51.08261
H         57.32295       84.98558       50.41303
H         58.83310       84.73548       49.46603
H         60.72038       83.80732       51.63052
H         62.10835       84.75536       52.23195
H         60.54079       84.81668       53.12345
N         56.37894       87.27136       49.34138
C         54.92758       87.43489       49.33822
C         54.25639       86.08975       49.55478
O         54.93220       85.08082       49.63648
C         54.46167       88.05735       47.99201
C         55.14260       89.39288       47.70835
O         54.74627       87.17470       46.93866
H         56.80797       86.78868       48.54340
H         54.61182       88.09468       50.17467
H         53.36183       88.22603       48.04564
H         54.17913       87.44055       46.16799
H         54.76123       89.81466       46.75332
H         54.94498       90.11682       48.52501
H         56.23299       89.22979       47.59937
N         52.90217       86.01015       49.65244
C         52.17721       84.74227       49.73606
C         52.44089       83.91140       48.49255
O         52.72470       82.72630       48.60243
C         50.65063       84.99650       49.86601
C         50.31834       85.61182       51.23748
O         50.21040       85.81908       48.80843
H         52.36572       86.88855       49.62129
H         52.49884       84.16113       50.62968
H         50.12148       84.01826       49.80773
H         49.34497       86.23344       49.05951
H         50.80965       86.59733       51.36864
H         49.22004       85.74539       51.33723
H         50.65093       84.92960       52.04880
N         52.35233       84.49350       47.26869
C         52.48219       83.78655       46.00063
C         53.83544       83.10872       45.88986
O         53.88719       81.91591       45.62631
C         52.23522       84.74973       44.80729
C         50.92651       85.57954       44.90990
C         49.67446       84.73762       45.20560
C         48.44412       85.62932       45.41979
N         47.26760       84.82285       45.74409
H         52.17212       85.50427       47.25424
H         51.69984       82.99867       45.94710
H         52.20848       84.14075       43.87762
H         53.07573       85.47287       44.71710
H         50.78729       86.14888       43.96578
H         51.02670       86.34052       45.70971
H         49.81799       84.16852       46.14749
H         49.49885       84.02382       44.37286
H         48.24557       86.22916       44.50528
H         48.64188       86.32974       46.26348
H         46.45191       85.45589       45.90808
H         47.04591       84.17785       44.95164
H         47.43966       84.26658       46.61375
N         54.97312       83.81078       46.14383
C         56.31371       83.23038       46.13645
C         56.38349       82.03756       47.07775
O         56.79035       80.96991       46.64061
C         57.36813       84.30263       46.50622
C         57.45242       85.38999       45.41307
C         58.51439       86.41772       45.68048
O         59.42017       86.57964       44.87937
O         58.44878       87.20470       46.76782
H         54.86637       84.79815       46.40474
H         56.55956       82.86498       45.11407
H         58.35821       83.81239       46.58669
H         57.13019       84.74767       47.49550
H         56.48541       85.92099       45.31228
H         57.67800       84.89621       44.44265
N         55.94426       82.13062       48.36226
C         55.91297       81.01441       49.28660
H         54.85891       80.80442       49.56954
H         56.34459       80.08894       48.85116
H         56.48266       81.27497       50.20203
H         55.56930       83.02432       48.69299
Ca        60.29567       89.72328       45.68262
O         57.42213       89.76010       44.44403
H         57.29818       89.57009       43.48058
H         57.59098       90.73504       44.48239
O         57.87181       91.20764       47.16880
H         57.07355       91.69634       46.84728
H         57.64439       90.95088       48.09755

Ca 1.0



