%chk=holoCaM-CaMKII.loop2.water2.frame399.chk
%nprocshared=20
%mem=10GB
%nosave
#b3lyp/svp scf=(tight,noincore,xqc) Test 
#IOP(5/87=12) Density=Current Pop=(MK,readradii) iop(6/33=2) iop(6/42=6)

holoCaM-CaMKII.loop2.water2.frame399 

   -2  1 
C         60.59221       85.56179       53.71115
C         60.98187       84.36955       52.88470
O         61.21017       83.30751       53.44310
H         59.59130       85.38306       54.15685
H         61.32937       85.72544       54.52377
H         60.53997       86.48325       53.09154
N         61.05211       84.47329       51.53060
C         61.33852       83.35631       50.64120
C         62.70250       82.72534       50.90190
O         63.67558       83.43377       51.11175
C         61.28278       83.84029       49.18145
C         61.40156       82.73008       48.20942
O         60.91315       81.51658       48.51859
O         61.68985       82.99051       47.05563
H         60.82980       85.38588       51.10295
H         60.54130       82.59261       50.78418
H         62.10770       84.55808       48.99981
H         60.32109       84.34140       48.94678
N         62.81986       81.36897       50.85607
C         64.03945       80.59827       51.05386
C         64.30703       79.57519       49.93043
O         65.30664       78.87435       50.01102
C         63.89354       79.87223       52.38275
H         61.96675       80.84321       50.69580
H         64.91447       81.27746       51.12783
H         64.81970       79.30822       52.60823
H         63.72037       80.62990       53.17737
H         63.02452       79.17676       52.35858
N         63.44025       79.39792       48.88957
C         63.60468       78.43089       47.80049
C         63.30163       79.00034       46.40626
O         63.58837       78.31806       45.43205
C         62.69439       77.21013       48.06255
C         61.26851       77.58416       48.41245
O         60.73990       78.72816       47.93239
O         60.71710       77.02548       49.34933
H         62.56934       79.91430       48.91658
H         64.66447       78.09542       47.76066
H         63.11857       76.65983       48.93005
H         62.71394       76.52049       47.19240
N         62.75072       80.23014       46.21988
C         62.51836       80.82363       44.91309
C         61.30713       80.28692       44.16600
O         61.22699       80.52163       42.96998
H         62.57048       80.80389       47.03105
H         63.43709       80.67736       44.31389
H         62.39019       81.92001       45.01147
N         60.30527       79.60617       44.79072
C         59.17128       78.99822       44.09242
C         57.98481       79.96103       43.89544
O         56.92383       79.51148       43.48163
C         58.76633       77.69768       44.82614
C         58.07623       77.90893       46.12728
N         57.62374       76.85749       46.82551
O         57.89603       79.02825       46.55647
H         60.36195       79.48549       45.80358
H         59.51020       78.63415       43.09852
H         59.67092       77.08566       45.02529
H         58.07238       77.11280       44.18512
H         57.75977       75.88825       46.51173
H         57.10061       77.03987       47.67479
N         58.09681       81.29712       44.16402
C         57.02985       82.27558       43.96118
C         55.79616       82.11170       44.84802
O         54.80239       82.76839       44.57282
H         59.00864       81.66507       44.45934
H         56.72520       82.25538       42.89355
H         57.44079       83.28895       44.16800
N         55.79580       81.29262       45.93764
C         54.70141       81.15660       46.90278
C         55.22549       81.05963       48.32299
O         56.29598       80.51566       48.54772
C         53.81638       79.89225       46.66003
C         53.10349       79.95179       45.32176
O         54.50566       78.66340       46.72720
H         56.67557       80.84335       46.15975
H         54.04009       82.05293       46.85239
H         53.04159       79.88411       47.46200
H         55.44980       78.81708       46.96503
H         53.83576       79.73992       44.51707
H         52.31006       79.17377       45.30933
H         52.63294       80.94363       45.15449
N         54.44610       81.47257       49.35379
C         54.80515       81.24772       50.74228
C         54.62099       79.76762       51.07115
O         53.54546       79.21939       50.86985
C         53.94204       82.11464       51.70482
C         54.04247       83.62736       51.31881
C         54.33403       81.84794       53.18030
C         53.34616       84.58885       52.27736
H         53.54650       81.92399       49.13939
H         55.85860       81.56988       50.91083
H         52.88810       81.78800       51.59185
H         53.56864       83.76933       50.32548
H         55.10083       83.96157       51.23185
H         55.31167       82.29670       53.45423
H         53.54320       82.22352       53.85996
H         54.38670       80.76421       53.39035
H         53.91944       84.66135       53.22503
H         53.32414       85.60353       51.82112
H         52.30531       84.26540       52.48128
N         55.62969       79.11968       51.70370
C         55.59261       77.79827       52.30051
C         55.64735       77.99186       53.82223
O         55.91244       79.09840       54.23918
C         56.77646       76.98680       51.76662
C         56.84546       77.03162       50.27962
O         57.63781       77.97658       49.74121
O         56.54178       76.04066       49.63752
H         56.46831       79.64562       51.88396
H         54.63753       77.29740       52.03933
H         56.72476       75.93397       52.10131
H         57.74359       77.40966       52.12597
N         55.26162       77.02480       54.69969
C         54.96916       77.25729       56.13091
C         56.16326       77.73460       56.98602
O         55.99914       78.73073       57.67840
C         54.24224       76.02389       56.69472
C         53.84278       76.23854       58.11721
C         52.67873       76.95403       58.44005
C         54.67032       75.75009       59.13470
C         52.36187       77.19108       59.77941
C         54.33649       75.96196       60.46827
C         53.18773       76.68826       60.79286
H         55.02454       76.10623       54.30171
H         54.21779       78.07845       56.19427
H         54.84920       75.10066       56.61053
H         53.32553       75.85339       56.08518
H         52.02614       77.33056       57.65897
H         55.58144       75.21782       58.89001
H         51.47944       77.76641       60.02733
H         54.97922       75.57139       61.24489
H         52.94573       76.86210       61.83089
N         57.39014       77.13357       56.99100
C         58.60549       77.72317       57.56851
C         58.89882       79.17695       57.18012
O         59.63691       79.83731       57.89977
C         59.73029       76.81851       57.02031
C         59.07250       75.98510       55.90687
C         57.66705       75.84690       56.41047
H         58.53446       77.71017       58.67998
H         60.63099       77.35116       56.63718
H         60.01489       76.13359       57.83994
H         59.04430       76.55406       54.95181
H         59.55346       74.99591       55.74381
H         56.91556       75.44364       55.70879
H         57.71525       75.12760       57.25827
N         58.35379       79.73601       56.07326
C         58.51005       81.13417       55.67393
C         57.34992       81.94759       56.23199
O         57.53594       83.10603       56.57529
C         58.55011       81.25191       54.13412
C         59.60998       80.32591       53.49659
C         59.46730       80.18064       52.01752
O         60.29340       79.55441       51.38801
O         58.35951       80.56312       51.39545
H         57.78022       79.12692       55.49531
H         59.45727       81.54160       56.09229
H         58.77281       82.30483       53.84908
H         57.54347       81.00562       53.73979
H         59.52652       79.28491       53.86999
H         60.61464       80.72346       53.73744
N         56.12478       81.37418       56.39023
C         55.01339       81.99994       57.06044
H         54.13134       81.32064       57.01649
H         55.27391       82.14785       58.12941
H         54.75454       82.96331       56.58193
H         55.96947       80.42409       56.06295
Ca        58.91751       79.58575       48.89295
O         58.51080       82.18742       47.14847
H         59.29054       82.44781       46.60215
H         58.12605       83.04688       47.44810
O         58.14792       82.81421       50.00087
H         58.02106       82.67767       50.96592
H         58.21348       83.79469       49.96410

Ca 1.0



