%chk=holoCaM-CaMKII.loop2.water2.frame468.chk
%nprocshared=20
%mem=10GB
%nosave
#b3lyp/svp scf=(tight,noincore,xqc) Test 
#IOP(5/87=12) Density=Current Pop=(MK,readradii) iop(6/33=2) iop(6/42=6)

holoCaM-CaMKII.loop2.water2.frame468 

   -2  1 
C         62.10777       64.83579       71.07023
C         62.54441       66.24458       71.37116
O         63.63436       66.43301       71.89047
H         61.10916       64.81438       70.58200
H         62.83493       64.36083       70.37736
H         62.05330       64.24273       72.00558
N         61.74413       67.29232       71.03632
C         62.12527       68.69060       71.19768
C         62.27323       69.11547       72.65054
O         61.35301       68.90930       73.42952
C         61.06732       69.59702       70.54248
C         61.49976       71.03064       70.61347
O         62.57355       71.36004       70.13971
O         60.73650       71.94240       71.24408
H         60.84093       67.08298       70.58241
H         63.07896       68.85542       70.64861
H         60.08384       69.47220       71.04579
H         60.94573       69.31633       69.47644
N         63.36937       69.83348       73.03915
C         63.52877       70.42184       74.36392
C         63.64425       71.95439       74.33361
O         63.73770       72.52460       75.41199
C         64.77542       69.82111       75.02146
H         64.11521       69.99976       72.35223
H         62.65271       70.17458       75.00151
H         64.90573       70.21764       76.05112
H         64.67595       68.71662       75.08474
H         65.68337       70.06354       74.42708
N         63.67460       72.68996       73.17455
C         63.86723       74.14623       73.14955
C         62.75106       74.90238       72.41551
O         62.18279       75.79464       73.02992
C         65.29770       74.51363       72.67511
C         65.76702       73.99981       71.34762
O         66.92675       74.18462       71.01419
O         64.96828       73.29216       70.54394
H         63.62347       72.20175       72.27509
H         63.85606       74.54489       74.18884
H         65.99955       74.08203       73.42303
H         65.42205       75.61804       72.69428
N         62.37849       74.63232       71.12733
C         61.35713       75.37960       70.39950
C         61.87240       76.00686       69.10777
O         61.07483       76.61927       68.41199
H         62.79847       73.84692       70.62888
H         60.92588       76.19089       71.02339
H         60.53571       74.67796       70.14049
N         63.17968       75.91482       68.72115
C         63.73063       76.52491       67.50332
C         63.25371       75.89076       66.17988
O         63.73227       76.31643       65.13734
C         65.28004       76.52407       67.58372
C         65.91196       75.15733       67.61690
N         67.25225       75.03340       67.73248
O         65.22043       74.15688       67.54726
H         63.83860       75.44653       69.35700
H         63.44210       77.59925       67.49003
H         65.57856       77.06257       68.51014
H         65.69898       77.08305       66.71943
H         67.85516       75.86552       67.80350
H         67.68627       74.10095       67.75699
N         62.30081       74.91418       66.12507
C         61.77853       74.35404       64.88372
C         62.66389       73.32676       64.19361
O         62.23794       72.83429       63.15843
H         61.83326       74.62196       66.98571
H         61.52401       75.18092       64.18514
H         60.83226       73.81968       65.11746
N         63.87288       72.92884       64.68607
C         64.72255       71.92778       64.03391
C         65.01860       70.74694       64.95816
O         64.61521       70.76382       66.11184
C         66.04387       72.60432       63.56423
C         65.75854       73.64439       62.47907
O         66.71591       73.24682       64.62185
H         64.22239       73.35917       65.54736
H         64.21773       71.49922       63.14065
H         66.71907       71.85136       63.10285
H         66.77225       72.61906       65.38673
H         65.13180       74.46888       62.87947
H         66.71401       74.07512       62.11123
H         65.23395       73.17352       61.62005
N         65.77894       69.70288       64.50663
C         66.24246       68.59521       65.33969
C         67.71686       68.83722       65.60357
O         68.45486       69.10889       64.66524
C         66.07163       67.20844       64.64361
C         64.63338       66.96458       64.12851
C         66.49135       66.08356       65.62436
C         64.53525       65.70791       63.25032
H         66.13194       69.73716       63.53858
H         65.68628       68.57017       66.30432
H         66.74565       67.19363       63.75829
H         64.32781       67.81720       63.48694
H         63.91932       66.89296       64.97775
H         67.52823       66.22673       65.98478
H         65.81681       66.06790       66.50941
H         66.47188       65.08436       65.14981
H         64.76486       64.78175       63.81381
H         63.50607       65.60606       62.84958
H         65.23774       65.78815       62.39177
N         68.21987       68.72515       66.85932
C         69.60875       69.01496       67.20373
C         70.32067       67.72588       67.52258
O         69.70279       66.67696       67.44391
C         69.63682       69.93972       68.43220
C         68.81180       71.17182       68.24087
O         67.52627       71.02967       67.87620
O         69.25352       72.26931       68.53840
H         67.59161       68.40801       67.61267
H         70.13726       69.50210       66.35554
H         70.67353       70.21620       68.71784
H         69.18143       69.38644       69.28447
N         71.63573       67.70637       67.86475
C         72.30962       66.45849       68.18214
C         71.75160       65.81051       69.45671
O         71.38178       64.64790       69.37199
C         73.83711       66.62668       68.26876
C         74.48516       65.26247       68.33146
C         74.38212       64.38481       67.23360
C         75.16859       64.84176       69.48219
C         74.94370       63.10901       67.29184
C         75.72761       63.56015       69.53682
C         75.61390       62.69494       68.44393
H         72.17051       68.58918       67.86496
H         72.12819       65.77689       67.32165
H         74.10418       67.24611       69.14533
H         74.21979       67.14956       67.36525
H         73.86360       64.68531       66.33109
H         75.25345       65.49657       70.34007
H         74.85396       62.44145       66.44406
H         76.24444       63.23455       70.42927
H         76.04338       61.70299       68.48873
N         71.63124       66.46414       70.66475
C         71.13446       65.83024       71.88699
C         69.64091       65.50414       71.85838
O         69.13959       65.02672       72.86709
C         71.49397       66.84356       72.98137
C         71.33534       68.15795       72.25879
C         71.99043       67.84913       70.91597
H         71.68274       64.88827       72.10840
H         70.93616       66.73992       73.93690
H         72.58091       66.74072       73.20696
H         70.24492       68.31959       72.09694
H         71.75406       69.04621       72.77858
H         71.58154       68.56443       70.18156
H         73.09481       67.93110       70.98328
N         68.88430       65.66803       70.73751
C         67.48691       65.27595       70.62257
C         67.41145       64.03782       69.74728
O         66.88255       63.02924       70.19207
C         66.67168       66.43607       70.02284
C         66.76191       67.69585       70.89992
C         66.05870       68.88360       70.31268
O         66.11614       70.05648       70.96715
O         65.46128       68.81402       69.24989
H         69.31471       66.05063       69.89130
H         67.05346       65.02092       71.61624
H         65.60772       66.13075       69.91458
H         67.06887       66.66954       69.01324
H         67.82644       67.98440       71.02467
H         66.33046       67.48399       71.90175
N         67.97516       64.03142       68.50657
C         68.02378       62.87808       67.63526
H         69.08713       62.60632       67.45729
H         67.50263       61.99943       68.06577
H         67.55819       63.13551       66.66173
H         68.43034       64.87887       68.16204
Ca        65.95678       72.04456       69.02475
O         62.55500       72.34365       67.63547
H         61.98557       72.83638       68.27878
H         61.91391       71.97232       66.98004
O         62.85772       69.35550       67.74958
H         63.38830       68.59052       67.41542
H         62.02551       69.33520       67.21395

Ca 1.0



