%chk=holoCaM.loop2.water1.frame20.chk
%nprocshared=20
%mem=10GB
%nosave
#b3lyp/svp scf=(tight,noincore,xqc) Test 
#IOP(5/87=12) Density=Current Pop=(MK,readradii) iop(6/33=2) iop(6/42=6)

holoCaM.loop2.water1.frame20 

   -2  1 
C         76.12726       -3.87282       15.21568
C         76.10461       -4.89642       14.11498
O         75.06445       -5.13021       13.52286
H         76.84526       -3.06608       14.94812
H         75.12732       -3.41514       15.36565
H         76.46134       -4.34332       16.16383
N         77.25906       -5.52185       13.77297
C         77.41429       -6.44214       12.64929
C         76.63227       -7.74306       12.79669
O         76.82039       -8.44194       13.78255
C         78.91223       -6.75931       12.49728
C         79.18290       -7.70263       11.37231
O         79.82068       -8.86139       11.62237
O         78.82348       -7.43063       10.23796
H         78.10123       -5.26632       14.31371
H         77.10058       -5.92624       11.71961
H         79.30071       -7.20619       13.43829
H         79.46121       -5.81245       12.30810
N         75.81208       -8.16920       11.78470
C         75.15081       -9.47376       11.76643
C         75.56602      -10.34555       10.56794
O         75.09849      -11.47445       10.50464
C         73.63239       -9.25923       11.73685
H         75.66708       -7.54997       10.97343
H         75.39950      -10.04277       12.68808
H         73.33495       -8.71287       10.81485
H         73.09557      -10.23224       11.76042
H         73.31295       -8.66598       12.61957
N         76.37965       -9.89443        9.56153
C         76.66656      -10.66006        8.33895
C         78.16149      -10.75232        7.97995
O         78.47598      -11.36492        6.96856
C         75.84248      -10.05551        7.18030
C         75.99221       -8.56624        7.05523
O         77.08345       -8.07117        6.86123
O         74.91729       -7.76627        7.18787
H         76.72748       -8.92816        9.59857
H         76.32036      -11.71233        8.44093
H         74.76838      -10.26194        7.37650
H         76.10766      -10.55103        6.22104
N         79.13643      -10.21931        8.76633
C         80.57189      -10.34873        8.52009
C         81.13935       -9.57625        7.33384
O         82.34621       -9.65005        7.14733
H         78.85357       -9.77647        9.64014
H         80.82737      -11.42559        8.41541
H         81.10899       -9.96670        9.41552
N         80.37542       -8.82332        6.49060
C         80.92986       -8.10905        5.33458
C         81.78428       -6.88273        5.69179
O         82.27984       -6.24194        4.77440
C         79.80873       -7.72861        4.33777
C         78.78600       -6.73601        4.82380
N         77.79375       -6.35168        3.99168
O         78.83684       -6.27846        5.95398
H         79.36139       -8.81394        6.63081
H         81.57412       -8.82098        4.77151
H         79.27223       -8.65687        4.04310
H         80.27739       -7.30571        3.42281
H         77.72913       -6.73139        3.03674
H         77.09011       -5.67093        4.29643
N         82.02509       -6.50174        6.98041
C         82.87129       -5.36994        7.34216
C         82.24190       -4.00087        7.13751
O         82.88933       -3.02818        7.49802
H         81.65808       -7.06948        7.75374
H         83.84399       -5.43855        6.80728
H         83.08909       -5.43901        8.42972
N         80.99987       -3.82962        6.59824
C         80.35055       -2.52840        6.45489
C         78.98002       -2.54040        7.17034
O         79.07908       -3.14632        8.41611
C         80.18441       -2.19889        4.94966
C         81.54889       -2.00815        4.28629
O         79.49474       -3.22788        4.28485
H         80.48192       -4.64714        6.27096
H         80.96247       -1.73019        6.93083
H         79.64650       -1.23724        4.80479
H         78.54063       -3.15995        4.54935
H         82.15927       -2.93283        4.35614
H         81.41457       -1.75146        3.21460
H         82.09600       -1.17585        4.77999
N         78.46243       -1.17953        7.38771
C         77.10140       -1.11412        7.97134
C         76.03101       -1.21501        6.89077
O         76.06387       -0.45555        5.93371
C         76.97890        0.18753        8.83033
C         77.87335        0.02453       10.09514
C         75.51881        0.48148        9.23738
C         77.88589        1.22554       11.04327
H         78.53428       -0.56254        6.54928
H         76.92964       -1.95034        8.68199
H         77.32501        1.05474        8.22553
H         78.92126       -0.16374        9.77881
H         77.52841       -0.85857       10.67981
H         75.44258        1.43310        9.80074
H         74.88215        0.62288        8.34048
H         75.10585       -0.33824        9.85588
H         78.56959        1.01002       11.89232
H         78.24246        2.13384       10.51657
H         76.88300        1.41210       11.47904
N         74.98696       -2.08222        7.05797
C         73.84304       -2.16452        6.15084
C         72.65790       -1.46445        6.79013
O         72.78727       -0.96882        7.89215
C         73.48546       -3.63785        5.86414
C         74.62584       -4.39933        5.26567
O         75.76047       -4.56113        5.96719
O         74.51880       -4.90583        4.16046
H         74.94192       -2.64014        7.92392
H         74.06319       -1.64103        5.19509
H         72.62116       -3.68167        5.16659
H         73.19162       -4.14500        6.80942
N         71.46734       -1.35718        6.13481
C         70.32201       -0.65788        6.71064
C         69.84767       -1.28855        8.02114
O         69.76620       -0.53879        8.98866
C         69.19238       -0.50564        5.66516
C         67.95723        0.15558        6.23585
C         68.02722        1.41678        6.85682
C         66.71435       -0.49631        6.15154
C         66.87724        2.00407        7.39243
C         65.56587        0.10044        6.67813
C         65.64754        1.34761        7.30150
H         71.38508       -1.75197        5.18794
H         70.64470        0.38155        6.94187
H         68.92124       -1.48293        5.22770
H         69.57902        0.11552        4.82839
H         68.96847        1.94401        6.93828
H         66.63139       -1.46507        5.67447
H         66.93988        2.96904        7.87847
H         64.61249       -0.40619        6.60396
H         64.75783        1.80542        7.71343
N         69.52044       -2.61105        8.17920
C         69.06792       -3.19876        9.43702
C         69.93448       -2.82354       10.62143
O         69.41625       -2.40696       11.64566
C         69.16904       -4.71042        9.18967
C         68.83953       -4.80077        7.72242
C         69.63313       -3.62961        7.15066
H         68.00983       -2.89930        9.61337
H         70.22560       -5.05173        9.28604
H         68.54259       -5.32929        9.86688
H         69.05343       -5.78056        7.24529
H         67.75389       -4.57553        7.61402
H         70.70781       -3.87918        7.02063
H         69.17647       -3.35924        6.18569
N         71.28526       -2.93899       10.51822
C         72.21228       -2.63112       11.59782
C         72.06752       -1.17377       12.00741
O         71.81045       -0.90064       13.17181
C         73.66090       -2.91243       11.15453
C         73.91083       -4.37071       10.69489
C         75.32858       -4.54619       10.23867
O         76.16798       -3.70046       10.51214
O         75.61815       -5.44766        9.28273
H         71.65996       -3.24541        9.61105
H         71.99699       -3.28909       12.46883
H         74.34091       -2.67465       12.00298
H         73.91277       -2.24493       10.30347
H         73.27417       -4.60512        9.81971
H         73.66678       -5.11271       11.47939
N         72.18958       -0.18409       11.08198
C         72.02379        1.21768       11.39027
H         71.00946        1.39723       11.80502
H         72.79584        1.54300       12.11728
H         72.13275        1.81964       10.46111
H         72.38358       -0.43489       10.10935
Ca        77.42534       -4.66852        8.24200
O         80.38615       -5.35387        9.34886
H         79.79459       -4.98511       10.05097
H         80.98368       -5.97953        9.82836

Ca 1.0



