%chk=holoCaM.loop2.water2.frame199.chk
%nprocshared=20
%mem=10GB
%nosave
#b3lyp/svp scf=(tight,noincore,xqc) Test 
#IOP(5/87=12) Density=Current Pop=(MK,readradii) iop(6/33=2) iop(6/42=6)

holoCaM.loop2.water2.frame199 

   -2  1 
C         30.43060       49.26346       14.38796
C         30.65258       48.23338       15.46180
O         31.10886       47.14228       15.15522
H         31.39875       49.49172       13.89208
H         29.71294       48.88523       13.63268
H         30.03425       50.21265       14.80965
N         30.39216       48.53677       16.76175
C         30.70906       47.65124       17.87621
C         29.82069       46.41010       17.91491
O         28.60707       46.56607       17.92025
C         30.53338       48.42378       19.20393
C         31.14829       47.70652       20.36891
O         31.05375       48.23178       21.60389
O         31.78304       46.68015       20.19831
H         30.03260       49.48120       16.97280
H         31.78414       47.37772       17.79125
H         29.45308       48.60832       19.39229
H         31.04223       49.40759       19.14210
N         30.35643       45.15348       18.01807
C         29.54093       43.94326       18.14548
C         29.78028       43.16033       19.44608
O         29.02401       42.22820       19.68287
C         29.80356       43.03092       16.94226
H         31.37988       45.05510       18.01529
H         28.46317       44.21423       18.13561
H         29.16149       42.12494       16.98660
H         29.57828       43.57034       15.99770
H         30.86844       42.71154       16.92366
N         30.81620       43.41941       20.30317
C         31.11039       42.59267       21.48583
C         31.48586       43.39371       22.74437
O         31.73633       42.76527       23.76410
C         32.21000       41.56685       21.13665
C         33.35840       42.20191       20.43012
O         34.00179       43.24489       20.96739
O         33.65857       41.82954       19.30621
H         31.50492       44.13450       20.03847
H         30.22110       41.99072       21.77383
H         31.78160       40.80294       20.45092
H         32.55895       41.03712       22.04867
N         31.51031       44.75613       22.78189
C         31.76747       45.52968       23.99276
C         33.17824       45.46107       24.56385
O         33.38103       46.06259       25.60943
H         31.23859       45.27850       21.94884
H         31.04869       45.20038       24.77417
H         31.56283       46.60134       23.78236
N         34.20045       44.77268       23.97616
C         35.52984       44.66669       24.58723
C         36.27262       46.00249       24.72597
O         37.27871       46.02201       25.42156
C         36.40723       43.62152       23.84875
C         36.72514       43.95155       22.41016
N         37.48594       43.11027       21.67323
O         36.29293       44.96982       21.89897
H         34.01365       44.26279       23.10863
H         35.37427       44.27245       25.61622
H         35.88037       42.64279       23.86427
H         37.36678       43.50150       24.39661
H         37.85640       42.23994       22.08048
H         37.70490       43.32857       20.69056
N         35.86557       47.14204       24.09069
C         36.50717       48.44205       24.25863
C         37.28447       48.91368       23.03752
O         37.79226       50.02499       23.08362
H         35.05845       47.10158       23.46172
H         37.23135       48.42506       25.10241
H         35.72099       49.18162       24.52176
N         37.51590       48.09994       21.96527
C         38.44666       48.41906       20.88261
C         37.85419       48.13640       19.50703
O         37.39391       47.02680       19.27237
C         39.72682       47.56163       21.05165
C         40.50034       47.94246       22.31618
O         39.41231       46.19143       21.11345
H         37.12911       47.15360       21.97893
H         38.76790       49.48358       20.92433
H         40.41600       47.76611       20.19706
H         39.47751       45.82837       20.19259
H         39.89341       47.75929       23.22754
H         41.42731       47.33485       22.38383
H         40.78730       49.01547       22.28106
N         37.91658       49.07515       18.51395
C         37.53383       48.78412       17.12968
C         38.47264       47.72082       16.56626
O         39.67335       47.94437       16.49694
C         37.55603       50.06169       16.23253
C         36.51518       51.09107       16.75129
C         37.26212       49.69407       14.75988
C         36.47819       52.39776       15.95617
H         38.30116       50.00438       18.74047
H         36.48940       48.40364       17.12213
H         38.57311       50.51193       16.27492
H         36.74879       51.35789       17.80237
H         35.49917       50.64075       16.72979
H         38.00456       48.97025       14.36868
H         36.24775       49.25574       14.66112
H         37.34344       50.57818       14.09950
H         36.14410       52.22948       14.91240
H         35.74659       53.08950       16.42352
H         37.47850       52.87885       15.95506
N         37.96790       46.52780       16.15493
C         38.78505       45.41511       15.66478
C         39.08708       45.56078       14.18553
O         38.65664       46.52866       13.57533
C         37.99548       44.10869       15.84345
C         37.48931       43.99376       17.23424
O         36.17181       44.11771       17.42522
O         38.24850       43.88240       18.18284
H         36.95497       46.37875       16.27592
H         39.71554       45.33801       16.27035
H         38.60111       43.21075       15.60447
H         37.11138       44.14181       15.16567
N         39.78552       44.58934       13.52652
C         39.94458       44.58625       12.07885
C         38.58543       44.38407       11.39517
O         38.26318       45.22064       10.56532
C         41.04294       43.59122       11.63606
C         41.31832       43.64613       10.14931
C         41.71904       44.84887        9.53533
C         41.19892       42.48690        9.36302
C         41.98496       44.88965        8.16426
C         41.47355       42.53166        7.99213
C         41.86419       43.73201        7.39325
H         40.19332       43.81270       14.06845
H         40.33855       45.58404       11.78769
H         40.81039       42.55937       11.94324
H         41.98391       43.86351       12.16159
H         41.83001       45.75771       10.11159
H         40.90091       41.54667        9.80981
H         42.28929       45.81945        7.70084
H         41.38596       41.63436        7.39364
H         42.07657       43.76514        6.33254
N         37.69841       43.36970       11.68820
C         36.35911       43.26674       11.10414
C         35.42695       44.46241       11.31962
O         34.33137       44.42756       10.77739
C         35.73469       42.06404       11.82869
C         36.93638       41.20092       12.10024
C         37.96056       42.23645       12.55503
H         36.49225       43.07691       10.01594
H         35.36325       42.38715       12.83132
H         34.89627       41.57452       11.28845
H         36.77169       40.36912       12.81848
H         37.26614       40.77490       11.12489
H         37.79268       42.53564       13.60291
H         38.94804       41.77137       12.42352
N         35.75714       45.52028       12.12092
C         34.86516       46.64806       12.38857
C         35.43673       47.96860       11.88288
O         34.74153       48.97143       11.98000
C         34.61696       46.75354       13.90677
C         34.00281       45.47248       14.49157
C         33.81896       45.53738       15.98257
O         34.12840       46.53091       16.62199
O         33.32691       44.46369       16.62579
H         36.65806       45.51771       12.60715
H         33.89061       46.50243       11.87337
H         33.93684       47.60897       14.11856
H         35.59020       46.94514       14.40745
H         34.67023       44.61088       14.28166
H         33.01609       45.28580       14.01659
N         36.68067       48.06469       11.33534
C         37.21861       49.31156       10.84043
H         38.24981       49.15006       10.45800
H         36.58781       49.69134       10.00972
H         37.25752       50.06206       11.65636
H         37.28313       47.24166       11.26529
Ca        35.31825       44.14742       19.44779
O         33.75986       49.27384       18.64568
H         34.33581       48.79256       18.00257
H         33.16387       49.82167       18.07645
O         34.40553       47.60695       21.05849
H         33.87917       46.93505       21.56090
H         34.29742       48.44421       21.57659

Ca 1.0



