%chk=holoCaM-CaMKII.loop3.water1.frame405.chk
%nprocshared=20
%mem=10GB
%nosave
#b3lyp/svp scf=(tight,noincore,xqc) Test 
#IOP(5/87=12) Density=Current Pop=(MK,readradii) iop(6/33=2) iop(6/42=6)

holoCaM-CaMKII.loop3.water1.frame405 

   0  1 
C         33.94442       67.10154       56.10780
C         32.75786       67.45989       56.95021
O         32.35520       66.64408       57.76752
H         34.81520       66.89460       56.76400
H         33.71209       66.19313       55.51292
H         34.20974       67.92333       55.41055
N         32.13437       68.66319       56.79497
C         30.96587       69.05934       57.56578
C         29.79856       69.19741       56.60146
O         29.87012       69.98734       55.67016
C         31.27256       70.35625       58.34291
C         30.25661       70.65769       59.41416
O         30.65151       70.76564       60.69589
O         29.08011       70.80631       59.14290
H         32.49003       69.32236       56.08517
H         30.73234       68.27745       58.32036
H         31.36478       71.21120       57.63923
H         32.24967       70.23227       58.85979
N         28.70468       68.40469       56.75014
C         27.57100       68.36300       55.82725
C         26.90048       69.71994       55.67319
O         26.54514       70.09112       54.56362
C         26.54275       67.33853       56.36199
C         25.40067       67.04184       55.37926
C         24.41246       66.04183       55.99522
C         23.30613       65.66465       55.00200
N         22.34579       64.74717       55.61534
H         28.69325       67.76443       57.55788
H         27.92489       68.00567       54.83432
H         26.12730       67.71133       57.32470
H         27.06717       66.37600       56.55620
H         25.83374       66.61443       54.44805
H         24.85405       67.97527       55.12542
H         23.95650       66.49818       56.90153
H         24.95249       65.11695       56.29634
H         23.76287       65.17762       54.11133
H         22.77205       66.58112       54.66666
H         22.82946       63.87738       55.93730
H         21.87756       65.21087       56.42778
H         21.61883       64.48898       54.90959
N         26.68156       70.49419       56.76818
C         25.90876       71.73528       56.77539
C         26.76329       72.97312       57.03884
O         26.21524       74.06716       57.04939
C         24.76938       71.61433       57.81919
C         25.27273       71.50319       59.24360
O         24.96566       72.35197       60.06155
O         26.06961       70.47744       59.61000
H         27.09066       70.16048       57.64382
H         25.43889       71.88834       55.77881
H         24.15040       70.72239       57.58258
H         24.11427       72.51003       57.73578
N         28.10999       72.88967       57.22449
C         28.98307       74.03562       57.41163
C         28.79975       74.82906       58.69543
O         29.57064       75.76490       58.86211
H         28.57052       71.97609       57.15126
H         28.87006       74.72109       56.54351
H         30.03335       73.66903       57.41363
N         27.83982       74.57360       59.64089
C         27.71523       75.42710       60.82688
C         28.89504       75.28506       61.78549
O         29.02792       76.12579       62.66392
C         26.36748       75.24549       61.56003
C         26.15038       73.90928       62.22270
N         24.99595       73.67447       62.88705
O         26.99956       73.03561       62.16378
H         27.16177       73.81540       59.49509
H         27.70241       76.47778       60.45610
H         25.54598       75.41610       60.83050
H         26.28921       76.02647       62.34779
H         24.26704       74.40053       62.94611
H         24.82659       72.76554       63.34025
N         29.79540       74.26412       61.67221
C         31.01500       74.18178       62.45662
C         31.16145       72.90670       63.25817
O         32.28159       72.65606       63.68125
H         29.65763       73.53530       60.95724
H         31.15425       75.04883       63.13715
H         31.85071       74.20759       61.72371
N         30.11743       72.06762       63.54664
C         30.31454       70.80461       64.25826
C         29.68240       69.63164       63.46761
O         28.28395       69.75050       63.50924
C         29.84458       70.85571       65.74017
C         28.35070       70.94798       65.96534
C         27.65696       69.83095       66.47044
C         27.63629       72.12325       65.68237
C         26.27681       69.88328       66.67268
C         26.25433       72.17736       65.90027
C         25.56969       71.05861       66.38953
O         24.23611       71.12179       66.57877
H         29.16558       72.32679       63.25738
H         31.40481       70.59560       64.31861
H         30.35297       71.68201       66.28162
H         30.20820       69.91363       66.20680
H         28.18119       68.90913       66.69213
H         28.14563       72.99952       65.30445
H         25.75943       69.00859       67.04753
H         25.71308       73.08930       65.68503
H         23.72671       70.36466       66.90260
N         30.06734       68.34243       64.06842
C         29.60975       67.17563       63.28689
C         29.07665       66.10053       64.21362
O         29.28730       66.15957       65.41808
C         30.69413       66.58955       62.31867
C         31.92936       66.01639       63.07333
C         31.09930       67.63215       61.26829
C         32.89751       65.24848       62.17098
H         31.08476       68.29825       64.29311
H         28.73141       67.47999       62.67882
H         30.21851       65.74613       61.77257
H         31.58265       65.29767       63.84585
H         32.49971       66.82070       63.58122
H         31.76656       67.19295       60.50085
H         30.19574       68.00053       60.74063
H         31.62170       68.48819       61.74289
H         33.72201       64.83315       62.78907
H         32.37263       64.40640       61.67199
H         33.35378       65.90771       61.40590
N         28.31991       65.09953       63.68906
C         27.73063       64.00993       64.45312
C         28.11691       62.67506       63.83107
O         28.86163       62.65771       62.86152
C         26.20264       64.19556       64.45995
O         25.69652       64.15529       63.15377
H         28.10740       65.13439       62.68201
H         28.07581       64.02805       65.51041
H         25.97471       65.18354       64.92118
H         25.71970       63.40346       65.07125
H         24.72977       64.36661       63.22525
N         27.61816       61.50688       64.31970
C         27.86600       60.21067       63.69404
C         27.34764       60.19437       62.26445
O         28.09320       59.83949       61.36299
C         27.17732       59.09828       64.49265
H         27.01031       61.54343       65.15259
H         28.95803       59.99344       63.69903
H         27.57076       59.07974       65.53110
H         26.07813       59.25628       64.53057
H         27.38107       58.11117       64.02447
N         26.07268       60.59518       61.99330
C         25.47610       60.59112       60.65973
C         26.30853       61.36346       59.65530
O         26.61642       60.81672       58.60499
C         24.06456       61.19018       60.71678
H         25.49856       60.93099       62.78236
H         25.37985       59.53999       60.30684
H         24.09674       62.24471       61.06725
H         23.59430       61.16292       59.71024
H         23.42954       60.60361       61.41415
N         26.71785       62.63579       59.91577
C         27.49620       63.43449       58.97010
C         28.77635       62.70935       58.59287
O         28.97405       62.43994       57.41621
C         27.82124       64.82629       59.55586
C         26.55152       65.65583       59.82174
C         26.87981       66.98183       60.43998
O         26.36436       67.30693       61.64116
O         27.59897       67.77586       59.85725
H         26.47311       63.03532       60.83284
H         26.89508       63.58839       58.04494
H         28.45904       65.38449       58.83455
H         28.39640       64.70046       60.49437
H         25.86840       65.12208       60.51172
H         26.01072       65.82059       58.86736
N         29.67292       62.33509       59.54667
C         30.88729       61.59757       59.26365
H         31.76343       62.18052       59.61526
H         30.85925       60.62871       59.80620
H         31.01363       61.38573       58.18124
H         29.48093       62.56374       60.52855
Ca        27.26456       70.26069       61.52612
O         24.88868       69.77889       63.39988
H         25.60957       70.42633       63.60017
H         24.05938       70.24548       63.67177

Ca 1.0



