%chk=holoCaM-CaMKII.loop2.water2.frame355.chk
%nprocshared=20
%mem=10GB
%nosave
#b3lyp/svp scf=(tight,noincore,xqc) Test 
#IOP(5/87=12) Density=Current Pop=(MK,readradii) iop(6/33=2) iop(6/42=6)

holoCaM-CaMKII.loop2.water2.frame355 

   -2  1 
C         46.66645       63.22640       50.11632
C         47.45230       64.40507       50.61270
O         48.54566       64.65289       50.12647
H         45.69970       63.58434       49.69890
H         47.21528       62.68775       49.31548
H         46.45869       62.52781       50.95287
N         46.91648       65.20968       51.56754
C         47.54107       66.44680       52.01749
C         48.82832       66.19180       52.79528
O         48.79068       65.45167       53.76874
C         46.54955       67.22548       52.91177
C         46.94875       68.65771       53.12328
O         47.89773       69.13670       52.52556
O         46.20476       69.44375       53.92283
H         45.97990       64.96604       51.92786
H         47.73410       67.06817       51.11528
H         46.44315       66.70625       53.88950
H         45.55093       67.25917       52.42756
N         49.99031       66.82148       52.45151
C         51.24459       66.67256       53.18923
C         51.73590       67.98587       53.80997
O         52.76081       67.95020       54.47753
C         52.31312       66.12592       52.23352
H         49.98144       67.44670       51.63537
H         51.12092       65.94622       54.02124
H         52.48792       66.84013       51.39875
H         53.27482       65.96319       52.76595
H         51.98395       65.15562       51.80507
N         51.10283       69.18115       53.60701
C         51.67040       70.46821       54.01867
C         50.63899       71.50622       54.50049
O         51.06679       72.58659       54.88490
C         52.50510       71.03360       52.84463
C         51.79398       70.91760       51.52362
O         50.54489       71.37883       51.38387
O         52.32064       70.32841       50.59387
H         50.30174       69.20396       52.96917
H         52.36615       70.33122       54.87605
H         53.45084       70.45499       52.76043
H         52.78293       72.09021       53.04767
N         49.29359       71.27869       54.53357
C         48.31394       72.25285       55.01615
C         48.14394       73.51821       54.17397
O         47.32099       74.33996       54.55230
H         48.93652       70.35740       54.26984
H         48.57713       72.54117       56.05684
H         47.31807       71.75976       55.04780
N         48.86542       73.76192       53.04216
C         48.74331       74.98288       52.23785
C         47.39467       75.12693       51.47693
O         47.23845       76.13259       50.79785
C         49.96225       75.10703       51.26454
C         50.12907       73.90796       50.33141
N         51.03877       74.20029       49.23384
O         48.89822       73.64195       49.80334
H         49.57680       73.08032       52.76928
H         48.82845       75.86010       52.91658
H         50.90568       75.21162       51.84129
H         49.83270       76.02902       50.65662
H         52.00221       74.34137       49.60288
H         51.05225       73.36468       48.60553
N         46.38055       74.20623       51.54122
C         45.06908       74.39807       50.90838
C         44.94562       73.97284       49.44068
O         43.86079       74.11895       48.89672
H         46.47944       73.40242       52.17091
H         44.74602       75.45447       51.03747
H         44.32985       73.77697       51.45876
N         45.98063       73.42180       48.74850
C         45.93404       72.94292       47.36738
C         46.34669       71.43536       47.31345
O         47.73133       71.25133       47.38833
C         46.84354       73.81834       46.45433
C         46.28360       75.22869       46.26960
O         48.13890       73.92142       46.99612
H         46.84820       73.31463       49.24048
H         44.89124       73.00839       46.98526
H         46.87915       73.37449       45.43129
H         48.75510       73.39528       46.42360
H         45.27984       75.18073       45.79582
H         46.20605       75.75890       47.24133
H         46.95397       75.81009       45.59937
N         45.82367       70.76114       46.11220
C         46.58997       69.56366       45.69637
C         47.83752       69.97744       44.90117
O         47.70609       70.65810       43.89313
C         45.65099       68.61517       44.90106
C         44.48914       68.16114       45.83099
C         46.42843       67.39692       44.36387
C         43.41847       67.32019       45.13762
H         45.68885       71.40950       45.30212
H         46.91030       68.98934       46.59627
H         45.23313       69.17358       44.03414
H         43.97112       69.05418       46.24173
H         44.89933       67.58212       46.68814
H         47.24190       67.72168       43.68488
H         46.86771       66.81193       45.19924
H         45.77595       66.73495       43.76231
H         43.82920       66.36343       44.75953
H         42.62056       67.07334       45.87021
H         42.96702       67.89229       44.30041
N         49.07999       69.55854       45.29450
C         50.31037       69.82722       44.54664
C         50.62883       68.63278       43.67135
O         49.87750       67.67363       43.70297
C         51.50532       70.05969       45.50180
C         51.32263       71.20378       46.44663
O         50.37820       71.14212       47.39584
O         52.07570       72.16328       46.40665
H         49.14314       68.91467       46.09435
H         50.17925       70.71219       43.88553
H         52.41523       70.25893       44.89672
H         51.68575       69.14499       46.10912
N         51.71066       68.61178       42.84091
C         52.02353       67.44886       42.01864
C         52.41676       66.23856       42.87288
O         51.84472       65.18537       42.63240
C         53.07043       67.76312       40.92839
C         53.19394       66.61848       39.94415
C         52.08321       66.21774       39.17381
C         54.41419       65.94182       39.78215
C         52.19132       65.15792       38.27103
C         54.51792       64.88252       38.87359
C         53.40756       64.49010       38.12074
H         52.30407       69.45245       42.76590
H         51.09558       67.19840       41.45939
H         54.05249       67.99915       41.37525
H         52.74487       68.66135       40.36020
H         51.13020       66.72253       39.26706
H         55.28339       66.23034       40.35928
H         51.33063       64.85598       37.68752
H         55.45976       64.36406       38.75322
H         53.48879       63.66985       37.41946
N         53.32918       66.28719       43.90871
C         53.66937       65.14182       44.76291
C         52.50049       64.50208       45.51093
O         52.71609       63.52063       46.20919
C         54.62586       65.73635       45.80767
C         55.28783       66.85067       45.03768
C         54.10105       67.45093       44.29288
H         54.17661       64.39042       44.11857
H         54.03248       66.23659       46.61056
H         55.30826       65.00170       46.28654
H         55.85701       67.57668       45.65674
H         55.97604       66.38752       44.29458
H         53.48323       68.07750       44.96705
H         54.49244       68.04947       43.45398
N         51.24600       65.01898       45.43007
C         50.07412       64.52011       46.12374
C         49.14866       63.88640       45.09545
O         48.76526       62.74002       45.27664
C         49.42131       65.69950       46.88060
C         50.41817       66.32491       47.88356
C         49.90087       67.54610       48.58894
O         50.71879       68.21420       49.42126
O         48.77091       67.96245       48.39971
H         51.08877       65.85674       44.86796
H         50.34277       63.73783       46.86908
H         48.51048       65.35349       47.41517
H         49.11978       66.47748       46.14650
H         51.33326       66.64584       47.34285
H         50.70738       65.56745       48.64336
N         48.82251       64.54582       43.94641
C         48.05109       63.97414       42.86383
H         47.18085       64.62699       42.64674
H         48.69005       63.92736       41.95408
H         47.69262       62.95049       43.09203
H         49.17925       65.48881       43.78967
Ca        48.49834       71.45825       49.47661
O         45.99521       68.12051       49.30965
H         46.35320       67.27898       48.93008
H         45.28270       67.82384       49.92862
O         45.97867       70.98857       50.90710
H         46.53572       71.18881       51.70008
H         45.06144       71.23969       51.17923

Ca 1.0



