%chk=holoCaM-CaMKII.loop4.water1.frame312.chk
%nprocshared=20
%mem=10GB
%nosave
#b3lyp/svp scf=(tight,noincore,xqc) Test 
#IOP(5/87=12) Density=Current Pop=(MK,readradii) iop(6/33=2) iop(6/42=6)

holoCaM-CaMKII.loop4.water1.frame312 

   -3  1 
C         53.21686       28.96285       53.47690
C         52.54928       30.30310       53.59675
O         52.97688       31.24357       52.94532
H         54.27776       29.04594       53.79177
H         52.72291       28.20434       54.12234
H         53.16791       28.61154       52.42600
N         51.48301       30.45812       54.42440
C         50.77613       31.71767       54.62101
C         51.69805       32.78855       55.19676
O         52.36412       32.53933       56.19165
C         49.57213       31.46710       55.54366
C         48.82356       32.72050       55.84533
O         48.68221       33.09762       57.12429
O         48.35187       33.40011       54.94914
H         51.15236       29.62773       54.94147
H         50.36591       32.06484       53.64833
H         49.91541       31.02126       56.50251
H         48.87859       30.75121       55.05013
N         51.73041       34.03126       54.63026
C         52.57836       35.13044       55.08509
C         51.71412       36.19932       55.76446
O         52.01949       36.55812       56.89337
C         53.42527       35.68599       53.89094
C         54.27867       34.54522       53.26331
C         54.32357       36.84802       54.35887
C         55.18084       34.97444       52.09878
H         51.10024       34.21923       53.83810
H         53.30351       34.76893       55.84981
H         52.73807       36.08022       53.10925
H         53.59036       33.76797       52.87263
H         54.92374       34.07917       54.03989
H         54.87879       37.29070       53.50660
H         53.71422       37.66907       54.78839
H         55.05167       36.49889       55.12164
H         55.67495       34.07714       51.66739
H         54.60076       35.47730       51.30112
H         55.98258       35.65993       52.43867
N         50.60874       36.73057       55.15982
C         49.75720       37.76808       55.76912
C         49.05934       37.35774       57.06649
O         48.38008       38.20353       57.63501
C         48.60595       38.15339       54.81383
C         49.05139       38.72472       53.51178
O         49.61120       39.80754       53.46341
O         48.80520       38.04891       52.38239
H         50.37931       36.39723       54.21356
H         50.38793       38.65959       55.97791
H         47.93512       38.91088       55.27425
H         47.99529       37.24281       54.63131
N         49.10983       36.09945       57.57730
C         48.31232       35.70044       58.72656
C         46.82540       35.73989       58.41362
O         46.04956       36.08746       59.29174
H         49.68925       35.38010       57.12776
H         48.55233       36.32893       59.61207
H         48.56948       34.65811       59.00209
N         46.35954       35.35805       57.18646
C         44.94400       35.30571       56.82078
C         44.48423       33.87159       56.55690
O         43.33967       33.68153       56.16974
C         44.64969       36.26472       55.64015
C         45.33075       35.96245       54.33090
O         45.15257       36.70979       53.38315
O         46.12726       34.89186       54.17745
H         47.04519       35.07742       56.47314
H         44.31494       35.67051       57.66158
H         44.94699       37.28988       55.95064
H         43.55309       36.27394       55.45307
N         45.29347       32.80669       56.83267
C         44.87458       31.41821       56.74131
C         44.74133       30.87046       55.33855
O         44.45534       29.68458       55.23566
H         46.22342       32.96833       57.23446
H         43.92817       31.27776       57.30613
H         45.65360       30.79576       57.23471
N         44.95094       31.62104       54.21869
C         44.91745       31.05837       52.87178
C         46.25127       31.23617       52.18214
O         47.09941       31.96314       52.68727
C         43.70870       31.60566       52.07270
C         43.50100       33.13611       52.00258
C         44.44168       33.92901       51.13150
N         44.21403       35.25197       50.95978
O         45.37649       33.39833       50.55348
H         45.17204       32.61925       54.31394
H         44.77276       29.95702       52.92698
H         42.81051       31.21758       52.60114
H         43.69308       31.17629       51.04773
H         43.48765       33.56860       53.02543
H         42.49032       33.29292       51.56718
H         43.41686       35.71340       51.42326
H         44.81946       35.81726       50.35123
N         46.52948       30.54136       51.04062
C         47.80089       30.64734       50.33823
C         47.51571       31.07516       48.91297
O         46.96188       30.28513       48.15829
C         48.58477       29.30273       50.39924
C         49.96907       29.42772       49.73840
C         48.76765       28.82798       51.85174
H         45.81859       29.89281       50.66521
H         48.42876       31.41420       50.82755
H         48.00514       28.51896       49.86236
H         50.49997       28.45160       49.77384
H         49.87792       29.72391       48.67317
H         50.58884       30.18275       50.26895
H         47.78326       28.66545       52.33916
H         49.31052       27.85822       51.87357
H         49.34209       29.57234       52.44354
N         47.83456       32.32910       48.48330
C         47.53735       32.79247       47.12984
C         48.67230       32.44003       46.18124
O         49.64697       31.85032       46.61528
C         47.14257       34.29546       47.08813
C         48.27262       35.30573       47.12944
N         49.04936       35.48678       48.21949
O         48.46114       36.00975       46.14835
H         48.24847       32.97529       49.16287
H         46.61930       32.26575       46.78357
H         46.39372       34.51519       47.87915
H         46.62114       34.45653       46.11855
H         48.90026       34.95934       49.08371
H         49.79270       36.20040       48.21026
N         48.61381       32.78122       44.86545
C         49.67239       32.49520       43.89627
C         51.00797       33.09822       44.30812
O         51.99819       32.38060       44.31690
C         49.26347       33.05202       42.51500
C         50.34939       32.88144       41.47717
C         50.80844       31.60444       41.11257
C         50.92273       34.01434       40.87493
C         51.82674       31.46636       40.16359
C         51.93805       33.87387       39.92692
C         52.39465       32.59825       39.56815
O         53.37607       32.44951       38.65598
H         47.77340       33.27939       44.53615
H         49.79724       31.39314       43.80349
H         49.02725       34.13343       42.62911
H         48.33875       32.54202       42.16874
H         50.38337       30.71726       41.56438
H         50.58855       35.00927       41.14244
H         52.17613       30.47826       39.89213
H         52.36976       34.75787       39.47480
H         53.79355       33.20790       38.22282
N         51.10460       34.41339       44.64538
C         52.35924       35.08955       44.97712
C         53.14757       34.30645       46.01776
O         54.31439       34.01609       45.79468
C         52.04491       36.52213       45.47167
C         53.29743       37.39049       45.64736
C         52.92164       38.75897       46.14334
O         52.32089       38.90169       47.34077
O         53.16328       39.74741       45.46887
H         50.23136       34.95908       44.66947
H         52.97187       35.16709       44.05115
H         51.48373       36.46430       46.42988
H         51.39496       37.02655       44.72191
H         53.81389       37.47741       44.66549
H         53.99603       36.93133       46.37726
N         52.53911       33.88909       47.15793
C         53.19415       33.09796       48.20134
C         53.70053       31.78072       47.65054
O         54.88648       31.50746       47.77126
C         52.20112       32.83859       49.35425
C         51.85357       34.16429       50.03229
C         50.73380       34.09873       51.00698
O         50.32974       35.26952       51.50470
O         50.13740       33.06865       51.26504
H         51.54236       34.13035       47.26523
H         54.06059       33.66485       48.61358
H         52.63913       32.15869       50.11756
H         51.28218       32.36533       48.94183
H         51.53288       34.90819       49.27996
H         52.74683       34.57189       50.53394
N         52.85267       30.91872       47.02804
C         53.25309       29.63815       46.48701
H         54.32431       29.41651       46.67275
H         52.64091       28.83977       46.95631
H         53.07257       29.63160       45.39165
H         51.86978       31.18335       46.91936
Ca        48.44407       35.83159       52.52041
O         47.14834       36.86154       50.17701
H         46.73180       36.70281       49.29427
H         47.89891       37.47744       49.98789

Ca 1.0



