%chk=holoCaM.loop3.water2.frame288.chk
%nprocshared=20
%mem=10GB
%nosave
#b3lyp/svp scf=(tight,noincore,xqc) Test 
#IOP(5/87=12) Density=Current Pop=(MK,readradii) iop(6/33=2) iop(6/42=6)

holoCaM.loop3.water2.frame288 

   0  1 
C         28.45727       76.04151       80.90046
C         29.02721       77.31668       80.36120
O         29.15841       78.28130       81.10108
H         27.53559       75.78048       80.34154
H         29.20312       75.22666       80.77423
H         28.21929       76.13960       81.98025
N         29.43802       77.36991       79.06712
C         30.10535       78.53207       78.50447
C         29.12002       79.68121       78.28825
O         28.18807       79.54743       77.50814
C         30.80413       78.11976       77.20446
C         31.74349       79.14884       76.67882
O         32.36733       78.89626       75.67124
O         31.94611       80.31756       77.31007
H         29.35423       76.51264       78.49745
H         30.91481       78.82222       79.21439
H         30.05136       77.86330       76.42840
H         31.42283       77.21742       77.40887
N         29.26597       80.83249       78.99461
C         28.34094       81.96471       78.96605
C         28.60321       82.88364       77.77518
O         27.65275       83.27279       77.11213
C         28.44431       82.74559       80.29737
C         28.07204       81.84663       81.50079
C         28.21783       82.59097       82.83471
C         27.97636       81.68966       84.06270
N         26.59856       81.20269       84.14855
H         30.03370       80.86000       79.67310
H         27.28876       81.60135       78.92736
H         27.74266       83.60893       80.27348
H         29.47787       83.13636       80.42248
H         28.74152       80.96321       81.53163
H         27.02837       81.48692       81.37541
H         27.52740       83.46105       82.86366
H         29.25999       82.97079       82.90566
H         28.19943       82.28566       84.97499
H         28.67641       80.82519       84.04610
H         25.93216       82.00830       84.16301
H         26.37757       80.56621       83.35060
H         26.48801       80.66087       85.03655
N         29.87405       83.24219       77.42910
C         30.21285       84.10168       76.28664
C         30.69643       83.29757       75.08257
O         31.04726       83.91319       74.08444
C         31.20366       85.22931       76.69699
C         32.33257       84.74250       77.55464
O         33.11620       83.72407       77.17191
O         32.43499       85.16592       78.69476
H         30.64586       82.81603       77.96000
H         29.30871       84.61901       75.89788
H         30.64222       85.97722       77.29917
H         31.59439       85.75713       75.80080
N         30.62651       81.93387       75.04117
C         30.87810       81.17108       73.82531
C         32.30925       81.19175       73.32139
O         32.52897       80.66533       72.23929
H         30.26472       81.41691       75.85227
H         30.21569       81.57516       73.02805
H         30.58765       80.11068       73.98616
N         33.33354       81.77018       74.01525
C         34.69098       81.88021       73.47104
C         35.39496       80.53920       73.23828
O         36.46824       80.53932       72.65279
C         35.55432       82.80644       74.35820
C         35.93227       82.21188       75.69927
N         37.23218       82.12685       76.06740
O         35.06606       81.82248       76.46664
H         33.12700       82.20565       74.92353
H         34.58918       82.38691       72.48563
H         34.99276       83.75130       74.52598
H         36.48018       83.06907       73.80312
H         37.98221       82.46503       75.44726
H         37.49133       81.73981       76.98653
N         34.86492       79.36862       73.68764
C         35.45187       78.05623       73.49380
C         35.88603       77.41595       74.79741
O         36.28509       76.26011       74.74544
H         33.99100       79.39316       74.20424
H         36.34010       78.09468       72.82704
H         34.69017       77.41236       73.00219
N         35.93093       78.10651       75.98117
C         36.51008       77.54041       77.19874
C         35.61498       77.69530       78.41651
O         34.59782       78.37418       78.35081
C         37.85694       78.23508       77.50010
C         38.89378       77.96411       76.43826
C         38.85063       78.60242       75.18523
C         39.92841       77.05430       76.70744
C         39.82539       78.32596       74.22039
C         40.89419       76.77405       75.74146
C         40.84733       77.40940       74.49366
O         41.77785       77.14688       73.55457
H         35.65183       79.09847       76.00314
H         36.69779       76.45143       77.07126
H         38.24041       77.83630       78.46206
H         37.73239       79.33112       77.64372
H         38.07227       79.31913       74.95499
H         39.97975       76.54830       77.66354
H         39.78667       78.82416       73.25966
H         41.67681       76.06112       75.96632
H         42.49752       76.51796       73.70914
N         35.97996       77.08860       79.59003
C         35.29437       77.27420       80.86368
C         36.31472       77.75960       81.89072
O         37.32911       77.09358       82.05718
C         34.63219       75.96801       81.39682
C         33.87057       75.19958       80.29051
C         33.68068       76.33994       82.56286
C         33.29006       73.86941       80.78452
H         36.80757       76.47177       79.58663
H         34.48041       77.99961       80.72924
H         35.43124       75.28837       81.76844
H         34.58833       74.94894       79.48019
H         33.05903       75.82522       79.85999
H         34.21340       76.89841       83.35690
H         32.84972       76.98189       82.19134
H         33.24269       75.44695       83.04776
H         34.09090       73.24218       81.23341
H         32.48824       74.02715       81.53359
H         32.84518       73.31603       79.93238
N         36.08971       78.85736       82.66508
C         37.01140       79.29785       83.71380
C         36.47473       78.94019       85.09385
O         35.39270       78.38556       85.18868
C         37.28070       80.80333       83.56720
O         36.09131       81.53206       83.73939
H         35.20125       79.35879       82.55268
H         37.98309       78.76580       83.62093
H         37.72614       80.98526       82.56023
H         38.02110       81.14828       84.31897
H         35.98718       82.12623       82.95123
N         37.22084       79.17517       86.21194
C         36.80811       78.79524       87.56495
C         35.55517       79.52848       88.00067
O         34.60806       78.88332       88.42650
C         37.93326       79.08009       88.56491
H         38.14791       79.61100       86.08925
H         36.62319       77.69736       87.59824
H         37.62587       78.75741       89.58353
H         38.84117       78.50658       88.28064
H         38.18411       80.16139       88.58974
N         35.48046       80.88528       87.90583
C         34.29243       81.65868       88.26321
C         33.08014       81.15462       87.50316
O         32.05393       80.86774       88.10257
C         34.52324       83.14015       87.92271
H         36.29626       81.38480       87.51765
H         34.10285       81.58154       89.35622
H         33.63050       83.74430       88.19026
H         35.39601       83.53164       88.48678
H         34.72490       83.27205       86.83649
N         33.16671       81.00050       86.15965
C         32.08670       80.55387       85.28621
C         31.54027       79.18388       85.66477
O         30.34577       78.97004       85.51310
C         32.64751       80.55374       83.85909
C         31.63799       80.31637       82.74542
C         32.32418       80.60242       81.44432
O         31.97859       81.68163       80.73480
O         33.24785       79.91430       81.06082
H         34.07802       81.22744       85.72951
H         31.25957       81.29716       85.33698
H         33.46526       79.81090       83.79212
H         33.07314       81.56859       83.69189
H         30.80618       81.03705       82.86722
H         31.23002       79.28264       82.76495
N         32.35129       78.21555       86.17319
C         31.89890       76.89156       86.54966
H         30.81878       76.73735       86.34758
H         32.47570       76.13282       85.97981
H         32.08111       76.73536       87.63422
H         33.34148       78.42480       86.32147
Ca        33.08226       82.25260       78.85999
O         33.66066       83.92144       81.59630
H         32.90078       84.15738       81.00867
H         33.23107       83.53142       82.39734
O         36.21601       81.84799       79.86658
H         36.46095       82.73407       80.23488
H         37.07744       81.36668       79.78403

Ca 1.0



