%chk=holoCaM.loop2.water2.frame63.chk
%nprocshared=20
%mem=10GB
%nosave
#b3lyp/svp scf=(tight,noincore,xqc) Test 
#IOP(5/87=12) Density=Current Pop=(MK,readradii) iop(6/33=2) iop(6/42=6)

holoCaM.loop2.water2.frame63 

   -2  1 
C         92.91815       24.83190       15.86216
C         92.99306       26.32791       15.71282
O         93.06231       26.80768       14.59552
H         92.01067       24.45359       15.34345
H         93.81525       24.35496       15.41797
H         92.84912       24.53132       16.92980
N         92.95575       27.13049       16.80873
C         92.89811       28.59071       16.76270
C         94.13107       29.23796       16.13719
O         95.24506       28.90132       16.51236
C         92.70794       29.12681       18.19103
C         92.56146       30.61582       18.20144
O         93.42964       31.37295       18.89759
O         91.66530       31.14402       17.56551
H         92.90059       26.67096       17.73128
H         91.99351       28.88588       16.18723
H         93.57254       28.83240       18.82411
H         91.78472       28.68474       18.62444
N         93.97514       30.25381       15.23276
C         95.06794       30.99456       14.61343
C         95.01295       32.50344       14.88492
O         95.92950       33.18165       14.43938
C         94.99466       30.78231       13.09482
H         93.02356       30.52970       14.97218
H         96.04518       30.61340       14.98053
H         95.82896       31.30477       12.57913
H         95.05236       29.70142       12.85048
H         94.03393       31.18281       12.69873
N         93.96934       33.11998       15.52695
C         93.81452       34.58054       15.51134
C         93.11034       35.18582       16.72956
O         93.04261       36.40614       16.79548
C         93.06953       34.97755       14.21981
C         91.76567       34.24042       14.07227
O         90.80926       34.35681       15.00807
O         91.58161       33.51123       13.11121
H         93.16063       32.54991       15.79853
H         94.81805       35.06086       15.49207
H         93.71248       34.72894       13.34805
H         92.88385       36.07289       14.20011
N         92.55999       34.43599       17.72087
C         91.89784       35.00552       18.88152
C         90.67088       35.81843       18.52843
O         90.58683       36.96652       18.94089
H         92.61419       33.41708       17.67796
H         92.61876       35.62487       19.45917
H         91.56419       34.17440       19.54130
N         89.65169       35.25965       17.81649
C         88.35573       35.90532       17.61252
C         87.23601       35.09450       18.27071
O         86.07444       35.43652       18.09552
C         88.07431       36.18347       16.11785
C         87.88498       35.00162       15.20544
N         87.48859       35.22253       13.93204
O         88.06695       33.85941       15.59433
H         89.77903       34.30254       17.46048
H         88.34177       36.90859       18.09166
H         88.88413       36.82073       15.70112
H         87.13025       36.76905       16.07034
H         87.32146       36.17850       13.58880
H         87.32034       34.44562       13.28815
N         87.51658       34.03837       19.09155
C         86.51518       33.25156       19.78992
C         85.73441       32.28296       18.92212
O         84.93766       31.55295       19.49499
H         88.49485       33.81534       19.31597
H         85.82697       33.92598       20.34421
H         87.04222       32.62282       20.54067
N         85.88517       32.19701       17.56545
C         85.13136       31.25063       16.74390
C         86.03553       30.39256       15.86069
O         87.17976       30.75064       15.61705
C         84.09802       32.01631       15.86178
C         83.08268       32.75399       16.73840
O         84.69027       32.96992       15.00607
H         86.52105       32.84209       17.08952
H         84.56733       30.54834       17.39604
H         83.53661       31.27973       15.24534
H         85.61761       32.70293       14.78753
H         83.58580       33.53659       17.34626
H         82.32449       33.25128       16.09667
H         82.56225       32.04556       17.41634
N         85.53627       29.25120       15.30222
C         86.20894       28.48694       14.25450
C         85.99508       29.18493       12.92501
O         84.86233       29.49515       12.57951
C         85.72624       26.98993       14.24119
C         86.49167       26.21809       15.35516
C         85.94871       26.30928       12.86993
C         86.11960       24.74006       15.50053
H         84.57166       28.97872       15.54699
H         87.30021       28.45979       14.43646
H         84.62881       26.95386       14.41971
H         86.31541       26.71463       16.33261
H         87.58411       26.26111       15.13921
H         85.37527       26.83276       12.07612
H         87.02114       26.29664       12.59612
H         85.55587       25.27326       12.86336
H         85.04464       24.63219       15.74895
H         86.35245       24.16407       14.58139
H         86.72589       24.29198       16.31675
N         87.05509       29.36833       12.08540
C         86.95125       29.92190       10.74351
C         87.13563       28.82051        9.71026
O         87.30618       27.67100       10.08851
C         87.96829       31.07130       10.56685
C         87.58118       32.24685       11.42571
O         87.74978       32.22304       12.76057
O         87.12517       33.25041       10.90294
H         87.98204       29.02334       12.37753
H         85.93185       30.32743       10.55785
H         87.93817       31.41135        9.51268
H         89.01101       30.73969       10.77541
N         87.04972       29.08729        8.37847
C         87.11226       28.07399        7.32746
C         88.39486       27.23267        7.35488
O         88.25868       26.02257        7.42182
C         86.92555       28.72836        5.94109
C         87.01524       27.71669        4.82274
C         86.06107       26.69144        4.69925
C         88.07462       27.78337        3.90149
C         86.16909       25.75022        3.67017
C         88.18150       26.83782        2.87902
C         87.22954       25.82223        2.76249
H         86.89014       30.06718        8.09268
H         86.25516       27.37712        7.47685
H         87.70137       29.50700        5.80575
H         85.94256       29.24566        5.89235
H         85.23595       26.62055        5.39675
H         88.82573       28.55937        3.98140
H         85.43248       24.96268        3.57759
H         89.00516       26.89182        2.17915
H         87.31503       25.09086        1.96952
N         89.66106       27.75912        7.28435
C         90.86839       26.93436        7.24775
C         90.99867       26.06612        8.48386
O         91.38351       24.91036        8.35302
C         91.99970       27.96065        7.08666
C         91.43806       29.20538        7.73769
C         89.98808       29.16984        7.26741
H         90.89749       26.26452        6.35958
H         93.00152       27.62998        7.43634
H         92.07924       28.20329        6.00230
H         91.46629       29.06309        8.83771
H         91.97295       30.14958        7.50191
H         89.38804       29.79052        7.96007
H         89.91183       29.53950        6.22188
N         90.63487       26.52600        9.70562
C         90.69854       25.72503       10.92117
C         89.81518       24.49521       10.80440
O         90.27764       23.39874       11.08234
C         90.24887       26.55382       12.12869
C         91.13598       27.78997       12.34893
C         90.66910       28.57911       13.52609
O         89.70667       28.22588       14.18409
O         91.20430       29.77620       13.76157
H         90.25573       27.48075        9.76260
H         91.74891       25.41092       11.11507
H         90.29448       25.91727       13.04053
H         89.19915       26.88654       11.97949
H         91.08032       28.47095       11.47608
H         92.19673       27.50283       12.47235
N         88.52899       24.60991       10.37677
C         87.63435       23.48265       10.25544
H         86.66534       23.81998        9.82652
H         88.07192       22.71779        9.58043
H         87.44538       23.04418       11.25707
H         88.17571       25.52894       10.10018
Ca        89.64425       31.30424       13.45778
O         89.28913       28.99165       16.98012
H         89.21802       28.93164       17.96522
H         88.98821       28.10571       16.66022
O         88.82491       31.51918       18.17056
H         89.31197       32.05539       17.49689
H         89.38933       31.55688       18.98314

Ca 1.0



