%chk=holoCaM.loop1.water2.frame97.chk
%nprocshared=20
%mem=10GB
%nosave
#b3lyp/svp scf=(tight,noincore,xqc) Test 
#IOP(5/87=12) Density=Current Pop=(MK,readradii) iop(6/33=2) iop(6/42=6)

holoCaM.loop1.water2.frame97 

   0  1 
C         68.94971       36.26899       18.37493
C         67.90622       37.27161       17.96431
O         66.74818       37.12757       18.32406
H         69.76316       36.77077       18.94012
H         68.51362       35.46385       19.00242
H         69.38630       35.80431       17.46328
N         68.26941       38.32898       17.19338
C         67.34074       39.31226       16.63473
C         66.44734       38.64842       15.58838
O         66.93797       37.92178       14.73643
C         68.16426       40.46898       16.04869
C         67.40842       41.54232       15.30860
O         67.75525       41.79752       14.16692
O         66.48348       42.33901       15.89129
H         69.27515       38.42293       16.97666
H         66.72249       39.75892       17.44586
H         68.92345       40.04826       15.35363
H         68.70885       40.95616       16.88907
N         65.10834       38.88509       15.61113
C         64.09741       38.27181       14.76157
C         63.39367       39.31169       13.88736
O         62.48882       38.93494       13.15487
C         62.99405       37.66861       15.67843
C         63.40059       36.73941       16.84108
C         63.82374       35.30790       16.49746
C         65.21800       35.18704       15.87733
N         65.60055       33.78384       15.74214
H         64.77141       39.56744       16.28248
H         64.54671       37.51340       14.09582
H         62.20836       37.16933       15.07130
H         62.50904       38.53885       16.18190
H         62.48018       36.63105       17.45892
H         64.16410       37.21309       17.48871
H         63.05693       34.82972       15.85112
H         63.85096       34.75581       17.46356
H         65.95328       35.68908       16.53340
H         65.25187       35.66244       14.88340
H         64.94015       33.29488       15.09590
H         66.56860       33.73172       15.35130
H         65.59189       33.31666       16.67855
N         63.69227       40.64107       13.97253
C         62.89510       41.69681       13.35817
C         63.73228       42.58726       12.45054
O         63.18758       43.53752       11.90411
C         62.34089       42.57485       14.50174
C         61.62773       41.77920       15.56314
O         62.21571       41.60289       16.76935
O         60.53607       41.28235       15.33629
H         64.46496       40.95098       14.57237
H         62.04984       41.27197       12.77373
H         61.67456       43.37977       14.12103
H         63.20285       43.07343       14.98967
N         65.07231       42.38699       12.28406
C         65.93197       43.29826       11.55024
C         66.15226       44.63478       12.24893
O         66.93212       45.41752       11.72459
H         65.52787       41.56067       12.69390
H         65.53871       43.44626       10.52172
H         66.93619       42.82754       11.46494
N         65.54274       44.97555       13.42829
C         65.80978       46.23665       14.12058
C         67.19928       46.27141       14.76906
O         67.56135       47.30556       15.31230
C         64.68558       46.56025       15.14063
C         64.51678       45.59898       16.28461
O         63.53363       45.80712       17.17987
O         65.24563       44.63417       16.41419
H         64.85757       44.33917       13.84853
H         65.75407       47.05517       13.36849
H         63.72113       46.59234       14.58865
H         64.86497       47.56915       15.57001
N         68.04009       45.19418       14.73310
C         69.39700       45.19492       15.25916
C         69.51097       45.18887       16.77202
O         70.63922       45.13264       17.24295
H         67.74743       44.33695       14.25191
H         69.95912       46.05192       14.82915
H         69.89622       44.26233       14.91483
N         68.42881       45.22416       17.60220
C         68.52824       45.16187       19.05939
C         67.74736       43.97468       19.61346
O         67.09427       43.25873       18.86368
C         68.07803       46.50551       19.69362
C         69.10619       47.62113       19.45092
O         66.80098       46.88901       19.24652
H         67.48795       45.29315       17.19818
H         69.58160       44.98595       19.37265
H         68.03008       46.39639       20.79716
H         66.89300       47.27300       18.33476
H         68.76764       48.55661       19.94502
H         70.08468       47.33279       19.89352
H         69.24673       47.81378       18.36717
N         67.84321       43.67830       20.94065
C         67.24580       42.51874       21.59473
C         66.33695       42.97565       22.73757
O         66.78304       43.69512       23.62127
C         68.40561       41.56959       22.05403
C         68.96453       40.83938       20.79603
C         67.96484       40.55248       23.12204
C         70.15803       39.91916       21.05482
H         68.43916       44.28127       21.52979
H         66.61441       41.93647       20.88929
H         69.20348       42.18302       22.52924
H         69.28624       41.59176       20.04549
H         68.15553       40.22473       20.33840
H         67.59758       41.07540       24.02800
H         67.18077       39.88347       22.73418
H         68.81967       39.93788       23.46685
H         71.00398       40.49581       21.48151
H         69.89192       39.08305       21.73263
H         70.48080       39.46582       20.09284
N         65.05217       42.51115       22.80206
C         64.14086       42.70643       23.92944
C         64.29957       41.54270       24.89339
O         65.11134       40.68097       24.62376
C         62.66475       42.77258       23.43863
C         62.41090       43.93475       22.47334
O         62.25850       41.54428       22.87401
H         64.77093       41.81922       22.10292
H         64.39292       43.64656       24.46785
H         62.00643       42.95788       24.31278
H         62.51765       41.52398       21.91643
H         61.33828       43.95448       22.18386
H         62.67188       44.90211       22.95028
H         63.01495       43.80231       21.55782
N         63.57587       41.44446       26.04211
C         63.69725       40.30763       26.96122
C         63.24108       38.98959       26.34588
O         63.92925       38.00077       26.55697
C         62.95198       40.55153       28.28966
C         63.65081       41.64473       29.10924
O         61.61145       40.88871       28.04446
H         62.93067       42.21279       26.27896
H         64.76828       40.17753       27.24240
H         63.00271       39.61022       28.88753
H         61.13225       40.79926       28.90911
H         64.69976       41.33874       29.32200
H         63.66602       42.61203       28.56718
H         63.13504       41.77856       30.08239
N         62.10876       38.88091       25.58681
C         61.67277       37.60545       25.00277
C         62.79932       36.98407       24.20131
O         63.15947       35.83967       24.43899
C         60.40324       37.79675       24.13113
C         59.90247       36.45540       23.55494
C         58.49871       36.56213       22.94075
C         58.01881       35.18540       22.44742
N         56.61994       35.22919       22.02155
H         61.56054       39.73374       25.39481
H         61.40406       36.90803       25.82680
H         60.58359       38.51420       23.29870
H         59.61343       38.22047       24.78834
H         59.84446       35.71777       24.38403
H         60.62264       36.07892       22.79444
H         58.48772       37.28927       22.09908
H         57.80224       36.91933       23.73010
H         58.11010       34.44291       23.27145
H         58.65908       34.84672       21.60220
H         56.49546       35.91004       21.23847
H         56.33162       34.27721       21.69765
H         56.01207       35.50141       22.82870
N         63.43586       37.73049       23.27108
C         64.57378       37.27509       22.48115
C         65.73087       36.85970       23.38313
O         66.25295       35.76728       23.21380
C         64.97184       38.39993       21.50370
C         63.81799       38.65304       20.51799
C         64.10995       39.75229       19.56110
O         64.33135       41.00934       19.97220
O         64.07268       39.51836       18.37793
H         63.10549       38.70076       23.15710
H         64.28694       36.39284       21.86571
H         65.88223       38.10765       20.93462
H         65.18095       39.33052       22.06877
H         62.88251       38.93586       21.03642
H         63.62359       37.71427       19.95299
N         66.14178       37.66496       24.39724
C         67.20073       37.35004       25.33248
H         67.96230       38.15776       25.30791
H         66.77729       37.30199       26.35923
H         67.69349       36.38370       25.10504
H         65.64660       38.53852       24.54501
Ca        64.47728       41.92425       16.89830
O         64.47986       44.90077       19.95004
H         64.60471       45.67666       20.55216
H         65.13738       45.03104       19.22544
O         61.81413       43.62537       18.98647
H         61.52497       44.35477       19.58972
H         61.16286       43.65209       18.24166

Ca 1.0



