%chk=holoCaM-CaMKII.loop2.water1.frame109.chk
%nprocshared=20
%mem=10GB
%nosave
#b3lyp/svp scf=(tight,noincore,xqc) Test 
#IOP(5/87=12) Density=Current Pop=(MK,readradii) iop(6/33=2) iop(6/42=6)

holoCaM-CaMKII.loop2.water1.frame109 

   -2  1 
C         10.03755       29.03731       61.91240
C          9.55119       28.69438       60.53635
O          9.32980       29.59866       59.74361
H         10.99648       29.59093       61.83677
H          9.28464       29.66993       62.42568
H         10.20657       28.12376       62.52142
N          9.37353       27.39429       60.17554
C          8.93418       26.99611       58.84570
C          7.52895       27.52844       58.58771
O          6.60719       27.13461       59.28898
C          8.99967       25.45807       58.74379
C          8.74082       24.88655       57.38607
O          8.51816       25.59231       56.41625
O          8.79144       23.55428       57.24312
H          9.58917       26.66101       60.86970
H          9.65527       27.41630       58.11330
H          8.28052       25.00948       59.46306
H         10.02381       25.12868       59.02805
N          7.30548       28.45895       57.61406
C          6.01750       29.11143       57.40147
C          5.17949       28.43803       56.33062
O          4.03017       28.82990       56.18066
C          6.23414       30.58328       57.03121
H          8.10512       28.78874       57.06664
H          5.43741       29.08161       58.35018
H          6.79093       30.65949       56.07083
H          5.25935       31.10405       56.91570
H          6.81708       31.09714       57.82350
N          5.65963       27.41859       55.56213
C          4.83866       26.70014       54.59192
C          4.61649       25.25368       55.01891
O          3.85967       24.56462       54.34886
C          5.43020       26.83952       53.17357
C          6.84503       26.34879       53.06211
O          7.13433       25.06239       53.31621
O          7.73595       27.11325       52.72612
H          6.63583       27.11619       55.67911
H          3.81907       27.14019       54.54757
H          5.40180       27.91501       52.89061
H          4.79822       26.28383       52.44732
N          5.18645       24.73648       56.14802
C          4.87751       23.41862       56.66853
C          5.19146       22.31393       55.69447
O          4.29856       21.54342       55.37227
H          5.83298       25.30285       56.71308
H          3.80215       23.38208       56.94801
H          5.47184       23.24981       57.59440
N          6.45535       22.15499       55.21775
C          6.85676       21.04483       54.35868
C          7.83282       20.15002       55.11190
O          7.59860       18.95262       55.19750
C          7.41317       21.53444       53.00456
C          8.79691       22.13238       53.05913
N          9.81666       21.52582       52.40749
O          9.00680       23.15533       53.69196
H          7.16211       22.84086       55.51001
H          5.96687       20.43099       54.09380
H          6.70306       22.25575       52.54400
H          7.45244       20.64714       52.33640
H          9.66657       20.66046       51.86956
H         10.76670       21.91057       52.44487
N          8.90392       20.69209       55.76039
C          9.78600       19.95172       56.64291
C         11.22086       20.45507       56.62921
O         11.98946       19.97384       57.44744
H          8.99673       21.71033       55.76226
H          9.74876       18.85948       56.44239
H          9.41737       20.12073       57.67781
N         11.65868       21.42325       55.76625
C         13.01102       21.98249       55.79850
C         12.94793       23.49040       56.02453
O         11.85889       24.03792       56.12473
C         13.75479       21.62314       54.49105
C         13.90498       20.09914       54.36444
O         13.05780       22.14133       53.38934
H         11.02575       21.79434       55.04688
H         13.59299       21.56131       56.64650
H         14.77376       22.06703       54.51882
H         13.55239       21.87725       52.57030
H         12.91191       19.60527       54.30706
H         14.47660       19.84656       53.44711
H         14.45885       19.69807       55.24004
N         14.09859       24.22279       56.13311
C         14.11438       25.66154       56.37914
C         14.73909       26.35836       55.17863
O         15.91735       26.16794       54.91402
C         14.90061       25.98100       57.69261
C         14.26247       25.26263       58.90895
C         14.97665       27.49991       57.93963
C         15.05603       25.44221       60.20870
H         15.00594       23.74402       56.04416
H         13.07667       26.04221       56.50631
H         15.94045       25.60250       57.57253
H         14.22598       24.17174       58.70508
H         13.22194       25.62335       59.06401
H         15.48446       27.99949       57.09945
H         13.96288       27.93115       58.07365
H         15.59337       27.74015       58.82605
H         14.58188       24.84996       61.01821
H         16.10067       25.08851       60.07413
H         15.06751       26.49908       60.54327
N         13.98858       27.19877       54.41197
C         14.53690       28.03079       53.34251
C         15.29733       29.19202       53.97237
O         15.20175       29.36609       55.17229
C         13.38024       28.54020       52.44926
C         12.81123       27.44661       51.57260
O         13.46658       27.04883       50.62354
O         11.59300       26.90686       51.78839
H         13.00066       27.31335       54.65532
H         15.24074       27.43414       52.72280
H         13.72953       29.32869       51.75270
H         12.59121       28.98981       53.09435
N         16.10520       30.01570       53.24428
C         16.86464       31.09616       53.87947
C         15.94713       32.14652       54.50437
O         16.17685       32.46254       55.66453
C         17.89058       31.74105       52.92066
C         18.71667       32.79803       53.63091
C         18.64851       34.14118       53.22183
C         19.55137       32.45715       54.71427
C         19.39231       35.12244       53.88551
C         20.29393       33.44243       55.37387
C         20.21323       34.77401       54.96072
H         16.21566       29.84195       52.23451
H         17.47601       30.64182       54.69170
H         17.37767       32.18519       52.04967
H         18.57706       30.95845       52.53087
H         18.01318       34.43185       52.39514
H         19.62944       31.43185       55.05242
H         19.32983       36.15497       53.56756
H         20.93121       33.17441       56.20736
H         20.78648       35.53588       55.47376
N         14.89038       32.72642       53.84608
C         13.96922       33.68594       54.44943
C         13.51702       33.28279       55.84368
O         13.60263       34.07827       56.76667
C         12.77221       33.68201       53.48174
C         13.45330       33.47061       52.15242
C         14.46811       32.39054       52.49860
H         14.45484       34.68728       54.46546
H         12.14200       32.77727       53.64539
H         12.11605       34.57478       53.54782
H         12.78370       33.20898       51.30471
H         14.00397       34.40566       51.90397
H         13.98872       31.39470       52.52772
H         15.27250       32.41673       51.74285
N         13.04972       32.02412       56.05091
C         12.59109       31.49776       57.33493
C         13.71470       31.52884       58.35694
O         13.51569       32.09044       59.42516
C         12.01307       30.07934       57.10650
C         10.72707       30.21218       56.25621
C         10.21501       28.94679       55.65828
O          9.28304       29.00803       54.87148
O         10.83053       27.77239       55.83562
H         13.04014       31.39374       55.23411
H         11.75777       32.12279       57.72794
H         11.75605       29.57831       58.06503
H         12.77813       29.46305       56.58286
H         10.92461       30.85334       55.37373
H          9.93032       30.69970       56.85663
N         14.93788       31.00205       58.07767
C         16.07021       31.06486       58.98048
H         16.87968       31.66355       58.50996
H         15.81276       31.53196       59.95367
H         16.45240       30.04142       59.16943
H         15.09546       30.57258       57.16276
Ca        10.77289       26.73080       53.87016
O         11.36070       24.23729       51.90641
H         12.11995       24.40592       51.29435
H         11.74216       24.34744       52.81386

Ca 1.0



