%chk=holoCaM.loop1.water1.frame9.chk
%nprocshared=20
%mem=10GB
%nosave
#b3lyp/svp scf=(tight,noincore,xqc) Test 
#IOP(5/87=12) Density=Current Pop=(MK,readradii) iop(6/33=2) iop(6/42=6)

holoCaM.loop1.water1.frame9 

   0  1 
C         98.27437       36.50267       22.29597
C         99.45050       36.17751       21.43317
O        100.39801       36.94591       21.43902
H         97.49059       35.72174       22.21812
H         98.60406       36.57755       23.35307
H         97.84623       37.47407       21.97232
N         99.46230       35.04063       20.67907
C        100.56722       34.64580       19.81509
C        100.71448       35.63985       18.65219
O        100.04823       35.50014       17.63627
C        100.33759       33.18983       19.34054
C        101.55787       32.69396       18.65476
O        102.71086       32.70358       19.34951
O        101.52570       32.36490       17.48232
H         98.65334       34.40589       20.75500
H        101.49593       34.64899       20.43320
H         99.43955       33.13057       18.68628
H        100.17095       32.53411       20.22342
N        101.47067       36.75870       18.82744
C        101.49872       37.91228       17.93041
C        102.28023       37.62305       16.66213
O        101.70516       37.68829       15.58478
C        102.07102       39.11076       18.72446
C        102.01065       40.47196       18.02199
C        102.43539       41.55945       19.02540
C        102.37431       42.97034       18.43444
N        102.73158       43.96481       19.44855
H        101.95719       36.84623       19.72371
H        100.44779       38.17799       17.67510
H        103.11766       38.90612       19.03817
H        101.45235       39.19339       19.64678
H        100.96754       40.67267       17.69340
H        102.67835       40.47575       17.13326
H        103.47101       41.35727       19.37780
H        101.75119       41.52162       19.90277
H        101.34381       43.17760       18.06981
H        103.07753       43.04484       17.57627
H        102.05569       43.92313       20.24663
H        103.69991       43.78934       19.80353
H        102.69265       44.92006       19.02621
N        103.60393       37.29968       16.71998
C        104.41377       36.98009       15.54293
C        103.78725       35.82099       14.76826
O        103.49294       36.00772       13.59556
C        105.91557       36.80082       15.92980
C        106.15512       35.87007       17.08766
O        105.89344       34.56228       16.96096
O        106.50701       36.31752       18.16884
H        104.04630       37.27503       17.64914
H        104.40854       37.85559       14.85358
H        106.27756       37.80652       16.24166
H        106.52199       36.49137       15.05148
N        103.47619       34.63576       15.36491
C        102.73837       33.56861       14.70671
C        103.55644       32.30548       14.55362
O        103.65111       31.81997       13.43515
H        103.68421       34.50798       16.35792
H        102.37867       33.87921       13.70233
H        101.83114       33.36046       15.30420
N        104.18271       31.71608       15.61550
C        104.96850       30.48649       15.49236
C        104.53580       29.38612       16.46507
O        105.08840       28.29912       16.36483
C        106.48124       30.80277       15.59431
C        106.96521       31.33292       16.91498
O        108.13904       31.63806       17.04814
O        106.13663       31.45891       17.95872
H        104.13404       32.18191       16.52733
H        104.82881       30.06229       14.47448
H        106.72449       31.55482       14.81252
H        107.06056       29.88076       15.37289
N        103.57570       29.57442       17.42388
C        103.13605       28.52941       18.34146
C        103.49817       28.80941       19.79155
O        103.21467       27.95551       20.61919
H        103.12415       30.48844       17.52332
H        103.60675       27.55611       18.08271
H        102.03711       28.39968       18.24224
N        104.18089       29.93143       20.17030
C        104.74412       30.12521       21.50572
C        104.30449       31.43544       22.13217
O        104.37543       32.45846       21.46775
C        106.29001       30.14904       21.40799
C        106.84549       28.86073       20.79639
O        106.71392       31.24607       20.63853
H        104.40509       30.64225       19.46559
H        104.47907       29.28443       22.18444
H        106.68225       30.24744       22.44888
H        107.62498       31.48781       20.94846
H        106.49079       28.73715       19.75046
H        107.95462       28.90515       20.78305
H        106.52932       27.98164       21.39557
N        104.00291       31.49985       23.46322
C        103.82896       32.76677       24.16775
C        105.04235       32.96793       25.07623
O        105.18545       32.29096       26.08392
C        102.44623       32.82976       24.88055
C        101.33229       32.86928       23.79473
C        102.34794       34.05123       25.81396
C         99.90427       32.91021       24.33971
H        104.00824       30.63243       24.02137
H        103.84032       33.60964       23.44524
H        102.32891       31.92224       25.51363
H        101.41828       31.96745       23.15136
H        101.47476       33.76524       23.14894
H        103.14627       34.02608       26.58417
H        102.42505       34.99238       25.23855
H        101.39092       34.05011       26.37295
H         99.19088       32.91098       23.48786
H         99.70575       32.02267       24.97497
H         99.71805       33.83695       24.91984
N        105.99917       33.86545       24.69661
C        107.23519       34.17255       25.41684
C        106.94824       35.04085       26.63688
O        105.79197       35.28647       26.93384
C        108.22554       34.90986       24.45923
C        108.64253       34.02816       23.26546
O        107.70444       36.15276       24.04379
H        105.85785       34.33216       23.79706
H        107.73752       33.23102       25.73130
H        109.17658       35.11888       24.98753
H        107.23340       36.03646       23.17912
H        109.12345       33.09590       23.63062
H        107.77326       33.75118       22.63396
H        109.37535       34.57530       22.63529
N        107.96198       35.58402       27.36886
C        107.75240       36.52813       28.46692
C        107.00082       37.77203       27.99723
O        105.99087       38.11110       28.59658
C        109.10209       36.96201       29.10284
C        109.81735       35.79698       29.79254
O        109.94868       37.51959       28.12857
H        108.92991       35.34616       27.11227
H        107.15040       36.03923       29.26648
H        108.87000       37.72365       29.88574
H        110.56516       38.14151       28.59583
H        110.08043       34.99682       29.07105
H        110.75430       36.16455       30.26258
H        109.17072       35.37082       30.58811
N        107.45208       38.50618       26.93913
C        106.84418       39.76172       26.49767
C        105.38249       39.57200       26.14295
O        104.53832       40.29727       26.65103
C        107.61433       40.30900       25.27081
C        107.18385       41.74078       24.89670
C        107.96593       42.30649       23.69882
C        107.58518       41.64166       22.36483
N        108.34140       42.22633       21.25724
H        108.27962       38.16172       26.43061
H        106.93627       40.50585       27.32034
H        107.48006       39.61348       24.41614
H        108.69816       40.34456       25.51731
H        107.39399       42.38954       25.77525
H        106.09500       41.79554       24.68113
H        109.05780       42.20764       23.88634
H        107.72884       43.38954       23.61484
H        106.49723       41.79307       22.18348
H        107.78508       40.55044       22.39534
H        109.36308       42.04410       21.38785
H        108.03172       41.78651       20.36050
H        108.17130       43.25703       21.20356
N        105.02530       38.59579       25.26814
C        103.65812       38.34867       24.82031
C        102.75301       38.09226       26.01737
O        101.76006       38.78998       26.17095
C        103.64533       37.18661       23.79076
C        104.46023       37.56777       22.53026
C        104.52286       36.48128       21.49610
O        105.03608       35.27821       21.79265
O        104.18835       36.71172       20.34961
H        105.77976       37.98700       24.92037
H        103.27199       39.25067       24.29413
H        102.59715       36.96986       23.48800
H        104.07864       36.27372       24.25455
H        105.50858       37.79610       22.79828
H        104.02010       38.48246       22.07572
N        103.07612       37.15727       26.94731
C        102.30425       36.94710       28.15330
H        101.27749       36.61256       27.90030
H        102.79170       36.17072       28.78245
H        102.25789       37.88899       28.74234
H        103.92475       36.60529       26.81434
Ca       104.59992       33.59209       18.52696
O        107.85348       34.20803       19.84478
H        108.14021       34.03901       18.91239
H        108.53309       34.83268       20.20285

Ca 1.0



