%chk=holoCaM-CaMKII.loop3.water2.frame148.chk
%nprocshared=20
%mem=10GB
%nosave
#b3lyp/svp scf=(tight,noincore,xqc) Test 
#IOP(5/87=12) Density=Current Pop=(MK,readradii) iop(6/33=2) iop(6/42=6)

holoCaM-CaMKII.loop3.water2.frame148 

   0  1 
C         98.60674        7.17389       70.45211
C         99.12013        6.94683       71.84039
O         98.39427        7.19420       72.78897
H         97.57306        7.58081       70.47710
H         99.26174        7.90050       69.92728
H         98.60046        6.21282       69.89785
N        100.39067        6.50012       72.03510
C        100.96884        6.27242       73.35187
C        101.97183        7.36541       73.62516
O        103.16014        7.10984       73.75174
C        101.52595        4.83266       73.42773
C        102.17181        4.45702       74.74360
O        103.32421        4.05713       74.73976
O        101.49886        4.48954       75.91598
H        100.99148        6.35022       71.20982
H        100.20185        6.37817       74.13285
H        102.26607        4.68948       72.61018
H        100.69629        4.12252       73.25144
N        101.51876        8.64699       73.74250
C        102.38104        9.77743       74.06237
C        102.90171        9.73416       75.49865
O        103.70913       10.59045       75.83259
C        101.63310       11.11197       73.84400
C        101.23462       11.32043       72.37301
C        100.59571       12.70250       72.17282
C        100.30672       13.02633       70.69711
N         99.30056       12.14017       70.11023
H        100.51238        8.81944       73.59477
H        103.25212        9.76091       73.37017
H        102.31133       11.94634       74.12854
H        100.73201       11.15615       74.49641
H        100.52836       10.52625       72.05486
H        102.15027       11.25723       71.74557
H        101.30777       13.47277       72.54231
H         99.65994       12.78108       72.76843
H        101.24944       12.96848       70.10848
H         99.93520       14.07351       70.64147
H         98.41173       12.19258       70.65866
H         99.10993       12.45165       69.13036
H         99.64473       11.15481       70.07620
N        102.50181        8.78853       76.40195
C        103.01049        8.71811       77.77083
C        103.88456        7.48104       77.98440
O        104.43266        7.33382       79.06796
C        101.84267        8.84966       78.76999
C        100.77759        7.80848       78.58525
O         99.64418        8.13800       78.27405
O        101.06240        6.51109       78.76715
H        101.81865        8.07121       76.12188
H        103.68713        9.57593       77.97689
H        101.38215        9.85187       78.62300
H        102.22391        8.80432       79.81294
N        104.14655        6.60987       76.96542
C        105.15555        5.56694       77.01827
C        104.87038        4.39304       77.92404
O        105.72323        3.51603       77.96027
H        103.70843        6.75294       76.05212
H        106.12529        6.02654       77.30926
H        105.28757        5.15547       75.99472
N        103.74756        4.27535       78.69427
C        103.59267        3.14602       79.60958
C        103.42472        1.81390       78.88010
O        103.58746        0.78066       79.51313
C        102.48014        3.38614       80.65267
C        101.07308        3.22504       80.12851
N        100.22588        2.34986       80.71916
O        100.68648        3.89062       79.18207
H        103.04522        5.02370       78.68832
H        104.53931        3.11010       80.19569
H        102.60462        4.40715       81.07571
H        102.62881        2.66737       81.48707
H        100.52510        1.78321       81.52650
H         99.26131        2.24150       80.37752
N        103.07561        1.76385       77.55870
C        102.96746        0.53430       76.78749
C        101.54574        0.20981       76.37010
O        101.37368       -0.75691       75.64113
H        102.87157        2.63757       77.05708
H        103.34601       -0.33949       77.36002
H        103.60504        0.64383       75.88405
N        100.47403        0.90421       76.85152
C         99.08645        0.52049       76.60590
C         98.27394        1.71738       76.16232
O         98.35686        2.74018       76.82865
C         98.46609        0.00285       77.91777
C         99.20578       -1.18374       78.48184
C         98.80635       -2.49107       78.16402
C        100.29389       -0.99001       79.34890
C         99.48489       -3.58664       78.70795
C        100.96698       -2.08400       79.89584
C        100.56309       -3.38812       79.57799
O        101.19974       -4.45405       80.10322
H        100.63423        1.68017       77.50949
H         99.00463       -0.30334       75.86180
H         97.40752       -0.28292       77.72625
H         98.43304        0.80316       78.68720
H         97.97137       -2.66158       77.49592
H        100.61801        0.00747       79.60681
H         99.16890       -4.59099       78.45649
H        101.79892       -1.91560       80.56826
H        101.94215       -4.35792       80.71690
N         97.38244        1.63954       75.12710
C         96.46720        2.74077       74.81786
C         95.04171        2.37803       75.19418
O         94.74206        1.21829       75.44607
C         96.56748        3.22167       73.33951
C         96.10400        2.14231       72.32534
C         97.99268        3.70651       73.05026
C         96.04613        2.65331       70.88184
H         97.28791        0.75112       74.61190
H         96.71608        3.61478       75.45851
H         95.88972        4.09548       73.22765
H         95.07356        1.81986       72.58754
H         96.76831        1.25363       72.36759
H         98.06845        4.16911       72.04654
H         98.28213        4.48398       73.78701
H         98.70781        2.85967       73.11291
H         95.64871        1.85397       70.22151
H         95.37363        3.53533       70.81070
H         97.05191        2.92681       70.50470
N         94.11927        3.37165       75.30029
C         92.72477        3.18151       75.66732
C         91.82037        3.78106       74.59938
O         92.31568        4.31916       73.61762
C         92.48371        3.84898       77.03548
O         92.75467        5.22273       76.96707
H         94.43438        4.33728       75.15009
H         92.48444        2.10055       75.76817
H         93.15912        3.37317       77.78233
H         91.43256        3.69304       77.36095
H         92.62799        5.57754       77.88513
N         90.46653        3.74285       74.74426
C         89.54057        4.37843       73.81074
C         89.79773        5.87112       73.72806
O         89.80293        6.41015       72.63116
C         88.09395        4.13749       74.24734
H         90.07749        3.26436       75.57127
H         89.65460        3.92559       72.79984
H         87.39673        4.60131       73.51619
H         87.88840        3.04626       74.27804
H         87.90497        4.57089       75.25227
N         90.05263        6.59412       74.85610
C         90.36893        8.01844       74.84372
C         91.59375        8.30194       73.99296
O         91.50922        9.11228       73.08045
C         90.62011        8.51677       76.27489
H         90.04770        6.09987       75.76211
H         89.50027        8.58281       74.43787
H         90.84389        9.60519       76.26954
H         89.71909        8.34698       76.90098
H         91.47612        7.98248       76.74140
N         92.77413        7.66981       74.24579
C         94.00518        7.94869       73.50791
C         93.93011        7.55157       72.03390
O         94.85235        7.88673       71.30308
C         95.18823        7.20036       74.14554
C         95.46851        7.61389       75.60103
C         96.56357        6.76266       76.16993
O         96.37334        6.08895       77.16915
O         97.75004        6.71532       75.54559
H         92.79466        6.98764       75.01671
H         94.20363        9.04203       73.56683
H         96.10150        7.39609       73.55263
H         94.97682        6.11855       74.08800
H         94.56786        7.49995       76.23798
H         95.78064        8.67976       75.62240
N         92.89451        6.82335       71.52855
C         92.78558        6.43141       70.13819
H         91.84268        6.84029       69.71776
H         93.63251        6.79993       69.52308
H         92.75562        5.32357       70.07076
H         92.14617        6.50626       72.14947
Ca        99.47454        5.43048       76.19089
O         96.96852        3.33695       79.41184
H         96.79442        3.94542       78.65139
H         96.49066        2.50311       79.17502
O         97.93374        6.45887       80.07574
H         98.49996        7.09718       80.57810
H         97.80256        5.70242       80.70020

Ca 1.0



