%chk=holoCaM.loop3.water2.frame293.chk
%nprocshared=20
%mem=10GB
%nosave
#b3lyp/svp scf=(tight,noincore,xqc) Test 
#IOP(5/87=12) Density=Current Pop=(MK,readradii) iop(6/33=2) iop(6/42=6)

holoCaM.loop3.water2.frame293 

   0  1 
C         28.75585       60.69542       90.54252
C         29.80097       61.76653       90.51197
O         30.25013       62.19622       91.56050
H         27.83873       61.05332       90.03021
H         29.14298       59.79692       90.01722
H         28.50305       60.41793       91.58799
N         30.22191       62.26524       89.32173
C         31.26230       63.27088       89.18911
C         30.61203       64.56859       88.75936
O         30.77014       65.01400       87.63085
C         32.31356       62.76060       88.19204
C         33.48163       63.68401       88.04342
O         34.30300       63.45935       87.17465
O         33.64964       64.73624       88.86536
H         29.77036       61.92394       88.45912
H         31.77169       63.45903       90.16019
H         31.82673       62.63167       87.20289
H         32.71060       61.77746       88.52053
N         29.83572       65.22201       89.65933
C         29.13247       66.46851       89.38681
C         30.13058       67.57848       89.09839
O         30.03494       68.18845       88.04227
C         28.19656       66.80529       90.57111
C         27.12530       65.69939       90.72717
C         26.23429       65.89970       91.95564
C         25.17143       64.78951       92.10158
N         25.75787       63.45642       92.28262
H         29.75355       64.80011       90.59686
H         28.47743       66.33775       88.49509
H         27.68391       67.77508       90.38687
H         28.79536       66.89442       91.50399
H         27.62259       64.71987       90.83754
H         26.49611       65.66637       89.81052
H         25.71224       66.87666       91.86710
H         26.86509       65.91977       92.87105
H         24.50401       64.78276       91.21150
H         24.55007       65.02772       92.99251
H         26.23958       63.13475       91.41326
H         26.42864       63.45755       93.08499
H         24.99278       62.77338       92.48559
N         31.14627       67.86580       89.96797
C         32.14829       68.90454       89.69926
C         32.94976       68.66747       88.41617
O         33.60359       69.59366       87.95654
C         33.11481       69.08538       90.89154
C         33.99639       67.88580       91.13815
O         33.46736       66.68822       91.45527
O         35.20815       68.00484       91.07310
H         31.18903       67.33584       90.85000
H         31.58646       69.85608       89.57099
H         32.53400       69.30051       91.81287
H         33.76475       69.96624       90.68926
N         32.95068       67.45937       87.78936
C         33.60350       67.19269       86.52060
C         35.09342       67.43716       86.54465
O         35.55418       68.24583       85.75187
H         32.43399       66.68619       88.21441
H         33.13221       67.82725       85.73840
H         33.42814       66.13162       86.23773
N         35.91440       66.75249       87.39511
C         37.37073       66.91012       87.39140
C         38.09726       65.62733       86.99490
O         39.30454       65.67693       86.80325
C         37.85757       67.44897       88.75305
C         37.80418       66.44356       89.88567
N         38.92321       66.15171       90.59006
O         36.75075       65.90194       90.18324
H         35.48755       66.09420       88.05653
H         37.64617       67.66903       86.62873
H         37.24336       68.33611       89.01884
H         38.90688       67.79508       88.63659
H         39.82263       66.60406       90.37102
H         38.89209       65.47951       91.36914
N         37.43540       64.44225       86.87206
C         38.04803       63.18882       86.48007
C         38.08500       62.19546       87.61906
O         38.46083       61.05987       87.36539
H         36.43813       64.39696       87.08611
H         39.09099       63.32732       86.12416
H         37.45485       62.77014       85.63768
N         37.79083       62.55557       88.90828
C         37.92758       61.64110       90.03511
C         36.60562       61.59353       90.83835
O         35.52166       61.83038       89.99676
C         39.08079       62.10548       90.95956
C         40.40754       62.29498       90.24540
C         40.58625       63.33723       89.31329
C         41.49494       61.45047       90.52655
C         41.80836       63.51673       88.66542
C         42.72193       61.63390       89.87748
C         42.88037       62.66738       88.94237
O         44.05563       62.85813       88.31009
H         37.51737       63.52438       89.12377
H         38.16177       60.61861       89.66493
H         39.19729       61.35308       91.76774
H         38.81983       63.06889       91.44285
H         39.78920       64.02688       89.08518
H         41.39516       60.64747       91.24556
H         41.92116       64.32269       87.95040
H         43.54906       60.97342       90.10310
H         44.82680       62.29792       88.47560
N         36.43544       60.31994       91.56678
C         35.30851       60.33136       92.53595
C         35.74233       59.84241       93.92600
O         36.18637       58.71172       94.06601
C         34.11687       59.43397       92.06797
C         34.57437       58.01682       91.61574
C         33.23547       60.07581       90.98542
C         33.70914       56.91700       92.22219
H         37.32775       60.11047       92.06887
H         34.92357       61.36041       92.68649
H         33.45119       59.35176       92.95818
H         35.61228       57.80040       91.93305
H         34.58479       57.94529       90.50507
H         33.78629       60.18388       90.03197
H         32.34433       59.44357       90.78770
H         32.87135       61.06872       91.32023
H         33.80636       56.94620       93.33085
H         32.64455       57.04452       91.94267
H         34.06858       55.92684       91.87144
N         35.58380       60.64676       95.01746
C         35.84430       60.20317       96.38661
C         34.86218       59.11330       96.80894
O         33.99019       58.75863       96.03022
C         35.72679       61.40148       97.35226
O         34.42259       61.91509       97.33456
H         35.24484       61.60642       94.86950
H         36.88531       59.81719       96.44900
H         36.43900       62.19575       97.04007
H         35.99344       61.07816       98.38298
H         34.33169       62.48867       98.13904
N         34.92636       58.55259       98.04756
C         33.94937       57.58686       98.54680
C         32.55984       58.20475       98.61486
O         31.61730       57.60199       98.12518
C         34.35351       57.09239       99.93905
H         35.69416       58.84177       98.67454
H         33.92946       56.69166       97.88402
H         35.35142       56.60627       99.88779
H         34.39829       57.93090      100.66575
H         33.62149       56.33854      100.30213
N         32.37802       59.43171       99.18737
C         31.08276       60.10671       99.28678
C         30.40492       60.20592       97.93834
O         29.25640       59.80262       97.80960
C         31.27301       61.52420       99.84878
H         33.21247       59.92376       99.54105
H         30.42325       59.54412       99.98296
H         31.92269       62.13167       99.18091
H         30.29104       62.03669       99.94018
H         31.74382       61.48194      100.85258
N         31.08260       60.71590       96.87980
C         30.52829       60.85259       95.54054
C         30.01889       59.51207       95.02824
O         28.85633       59.43160       94.65758
C         31.59239       61.45344       94.60403
C         31.93996       62.91029       94.98947
C         32.95864       63.45652       94.04078
O         34.07140       63.76590       94.43397
O         32.65787       63.54789       92.73512
H         32.06096       60.99390       97.04054
H         29.66509       61.55579       95.55933
H         31.19985       61.44269       93.57465
H         32.50941       60.82381       94.62040
H         32.34499       62.95229       96.02088
H         31.03134       63.54766       94.94707
N         30.81564       58.40879       95.03121
C         30.36890       57.08907       94.63129
H         29.31778       57.08466       94.27501
H         31.01978       56.70572       93.82005
H         30.44334       56.40143       95.50106
H         31.77601       58.49266       95.37242
Ca        34.27863       63.29363       91.21177
O         37.07238       64.02264       93.24667
H         36.95977       63.42422       94.02690
H         37.93603       64.47854       93.40941
O         35.31808       66.43709       93.95626
H         34.70381       67.17116       94.20921
H         36.21410       66.85738       93.93251

Ca 1.0



