%chk=holoCaM.loop1.water2.frame152.chk
%nprocshared=20
%mem=10GB
%nosave
#b3lyp/svp scf=(tight,noincore,xqc) Test 
#IOP(5/87=12) Density=Current Pop=(MK,readradii) iop(6/33=2) iop(6/42=6)

holoCaM.loop1.water2.frame152 

   0  1 
C         -7.09411       49.62633       -1.61538
C         -6.33151       48.54190       -2.30777
O         -6.68877       48.21274       -3.43058
H         -8.15165       49.30783       -1.49688
H         -6.67050       49.84432       -0.61389
H         -7.05931       50.54851       -2.23210
N         -5.28629       47.91449       -1.69162
C         -4.55110       46.83214       -2.32325
C         -4.86124       45.53659       -1.60060
O         -4.61382       45.41989       -0.40790
C         -3.04253       47.09400       -2.32920
C         -2.33560       46.07061       -3.17467
O         -3.02737       45.19668       -3.93732
O         -1.12065       46.04312       -3.18956
H         -5.03419       48.18067       -0.72732
H         -4.86779       46.75082       -3.38644
H         -2.65985       47.05865       -1.28514
H         -2.81528       48.09585       -2.75196
N         -5.45278       44.52949       -2.28897
C         -5.99514       43.33323       -1.66923
C         -4.96394       42.21538       -1.50985
O         -5.33134       41.18885       -0.95527
C         -7.21238       42.83001       -2.49772
C         -8.24339       43.92699       -2.87406
C         -8.78511       44.71702       -1.67541
C         -9.71882       45.84370       -2.14252
N        -10.20449       46.62439       -1.00558
H         -5.67552       44.71777       -3.26779
H         -6.37818       43.60230       -0.66068
H         -7.72287       42.02229       -1.93053
H         -6.84810       42.39712       -3.45602
H         -9.08591       43.45054       -3.42066
H         -7.78416       44.64746       -3.58162
H         -7.94388       45.19244       -1.12937
H         -9.32249       44.02931       -0.98824
H        -10.58316       45.41480       -2.69581
H         -9.16368       46.52071       -2.83169
H        -10.81979       47.39382       -1.35578
H        -10.75545       46.01326       -0.36047
H         -9.39861       47.04771       -0.48962
N         -3.68203       42.31033       -1.98905
C         -2.71817       41.20519       -1.92629
C         -1.43722       41.56378       -1.17177
O         -0.59506       40.68856       -1.02045
C         -2.32663       40.77338       -3.35445
C         -3.49743       40.36845       -4.20638
O         -4.37607       41.17154       -4.47541
O         -3.55755       39.12507       -4.71861
H         -3.38566       43.16996       -2.46892
H         -3.16812       40.32889       -1.41079
H         -1.61904       39.91714       -3.29739
H         -1.80620       41.60986       -3.85235
N         -1.19957       42.81320       -0.68389
C          0.02350       43.18188        0.01248
C          1.25844       43.09124       -0.86351
O          2.23701       42.48420       -0.45287
H         -1.90731       43.55225       -0.79538
H          0.14552       42.56651        0.93117
H         -0.06822       44.24356        0.32851
N          1.28639       43.71613       -2.07310
C          2.47425       43.83291       -2.92399
C          2.80728       45.30647       -3.21555
O          3.77925       45.55692       -3.91439
C          2.26707       43.04448       -4.24132
C          1.02974       43.48794       -4.95641
O          0.02368       42.62918       -5.17802
O          0.87727       44.66114       -5.24548
H          0.41095       44.14809       -2.40171
H          3.36222       43.39282       -2.42006
H          2.17001       41.96249       -4.00590
H          3.14933       43.17256       -4.90494
N          2.04738       46.33096       -2.72522
C          2.29222       47.73990       -2.98677
C          2.14050       48.11780       -4.44798
O          3.00663       48.80796       -4.95860
H          1.24821       46.13153       -2.11076
H          3.29156       48.03653       -2.60039
H          1.53104       48.32548       -2.42474
N          1.01357       47.77647       -5.13865
C          0.66658       48.21068       -6.50287
C         -0.80864       47.90663       -6.81766
O         -1.46535       47.19401       -6.07015
C          1.54898       47.59664       -7.63712
C          3.01147       48.05656       -7.70360
O          1.47302       46.19563       -7.63374
H          0.32116       47.24516       -4.60434
H          0.74790       49.31995       -6.52395
H          1.12510       47.94804       -8.60162
H          2.10447       45.86676       -6.94311
H          3.06459       49.16588       -7.72564
H          3.61464       47.65239       -6.86974
H          3.47290       47.66503       -8.63459
N         -1.41202       48.49443       -7.89467
C         -2.84072       48.38316       -8.18206
C         -3.07409       47.91830       -9.62173
O         -2.75468       48.64800      -10.55017
C         -3.49549       49.77572       -7.90297
C         -3.39259       50.19271       -6.40732
C         -4.94936       49.87988       -8.37406
C         -4.20844       49.33205       -5.42996
H         -0.85634       49.13246       -8.48465
H         -3.31995       47.63847       -7.51376
H         -2.92949       50.53263       -8.49152
H         -3.75260       51.24011       -6.30769
H         -2.32961       50.18405       -6.08844
H         -5.58490       49.12366       -7.88035
H         -5.34256       50.89318       -8.14867
H         -5.01374       49.75029       -9.46997
H         -3.88259       48.27370       -5.43788
H         -4.07424       49.72164       -4.39937
H         -5.29248       49.38013       -5.66050
N         -3.67130       46.71276       -9.86797
C         -4.09979       46.25420      -11.19534
C         -5.32314       47.05414      -11.64420
O         -5.76639       47.91452      -10.90596
C         -4.48502       44.74272      -11.17886
C         -3.34446       43.81537      -10.73870
O         -5.63444       44.51979      -10.40628
H         -3.85343       46.10742       -9.06395
H         -3.25967       46.37323      -11.91416
H         -4.73016       44.43001      -12.21525
H         -5.37216       44.52805       -9.45400
H         -2.45895       43.95098      -11.39345
H         -3.05797       44.01381       -9.68843
H         -3.67948       42.75750      -10.80584
N         -5.95985       46.79686      -12.82147
C         -7.20218       47.47260      -13.20305
C         -8.33550       47.15443      -12.22933
O         -8.95026       48.08624      -11.73004
C         -7.63898       47.11388      -14.64370
C         -6.63396       47.62186      -15.68201
O         -7.80833       45.72619      -14.78130
H         -5.56106       46.08985      -13.45535
H         -7.03649       48.57474      -13.19592
H         -8.60635       47.64093      -14.83251
H         -8.51723       45.58624      -15.46219
H         -5.64212       47.14273      -15.55211
H         -7.00602       47.39722      -16.70356
H         -6.51613       48.72332      -15.59010
N         -8.67683       45.86589      -11.92519
C         -9.81203       45.51101      -11.06801
C         -9.73446       46.19545       -9.71332
O        -10.70904       46.80511       -9.29571
C         -9.96710       43.96991      -10.93546
C         -8.87118       43.25830      -10.12053
C         -9.04731       41.73263      -10.15001
C         -8.08702       40.98777       -9.20148
N         -6.67607       41.24145       -9.49771
H         -8.11511       45.10510      -12.33526
H        -10.74126       45.85856      -11.57332
H        -10.00521       43.54253      -11.96142
H        -10.94176       43.75299      -10.44415
H         -8.92938       43.59946       -9.06566
H         -7.88079       43.50540      -10.54272
H         -8.90344       41.37025      -11.19154
H        -10.08186       41.47695       -9.83299
H         -8.28706       39.89725       -9.29786
H         -8.29904       41.28025       -8.14908
H         -6.46444       41.01729      -10.49657
H         -6.43490       42.23561       -9.29021
H         -6.08708       40.63619       -8.88078
N         -8.57610       46.17497       -9.00093
C         -8.39678       46.83080       -7.70856
C         -8.69757       48.31699       -7.84604
O         -9.53768       48.81943       -7.11309
C         -6.96969       46.54929       -7.16566
C         -6.77986       45.03413       -6.90861
C         -5.40358       44.66074       -6.43818
O         -4.41697       44.96821       -7.08081
O         -5.25682       43.87939       -5.35896
H         -7.77112       45.69799       -9.42836
H         -9.11034       46.40352       -6.96867
H         -6.81345       47.09824       -6.21125
H         -6.21597       46.89969       -7.90417
H         -6.95579       44.46417       -7.83703
H         -7.52661       44.68416       -6.16377
N         -8.10881       49.05726       -8.82434
C         -8.42426       50.44641       -9.09653
H         -9.17463       50.85864       -8.39147
H         -7.50593       51.06219       -9.03588
H         -8.82990       50.53140      -10.12761
H         -7.43549       48.60031       -9.44405
Ca        -1.88063       43.78597       -5.22998
O         -2.69732       42.04712       -7.76486
H         -2.41453       41.26219       -8.29787
H         -3.36098       41.68792       -7.12434
O         -0.92137       44.69739       -8.40058
H         -0.66137       44.06990       -9.12080
H         -0.49724       44.32417       -7.58897

Ca 1.0



