%chk=holoCaM-CaMKII.loop1.water2.frame74.chk
%nprocshared=20
%mem=10GB
%nosave
#b3lyp/svp scf=(tight,noincore,xqc) Test 
#IOP(5/87=12) Density=Current Pop=(MK,readradii) iop(6/33=2) iop(6/42=6)

holoCaM-CaMKII.loop1.water2.frame74 

   0  1 
C        -23.26588       46.65570       81.96613
C        -24.66744       46.22769       81.65387
O        -25.23914       45.44759       82.39901
H        -22.59973       46.35157       81.13134
H        -23.22823       47.76055       82.07602
H        -22.90548       46.18682       82.90548
N        -25.28854       46.73586       80.55697
C        -26.64554       46.39722       80.14550
C        -26.71419       44.96329       79.62419
O        -26.67279       44.78317       78.41453
C        -27.11230       47.44662       79.09621
C        -28.44939       47.19121       78.44593
O        -28.52224       47.18729       77.22780
O        -29.56788       46.96475       79.15897
H        -24.76781       47.43605       80.00514
H        -27.30435       46.51088       81.01671
H        -26.35495       47.52443       78.28468
H        -27.15740       48.43339       79.60045
N        -26.88952       43.89382       80.46699
C        -26.95359       42.51664       79.97506
C        -28.36231       41.95517       79.90579
O        -28.48518       40.86685       79.35734
C        -26.05412       41.55222       80.77816
C        -24.55808       41.81387       80.57668
C        -23.73340       40.62029       81.08939
C        -22.25819       40.75310       80.69336
N        -21.51218       39.54266       81.03858
H        -27.01939       44.05656       81.47611
H        -26.61108       42.48569       78.91723
H        -26.24572       40.53173       80.37734
H        -26.32422       41.54441       81.85749
H        -24.25012       42.76426       81.06425
H        -24.37359       41.89585       79.48372
H        -24.12109       39.69337       80.61040
H        -23.83752       40.51386       82.19184
H        -21.80890       41.63553       81.19854
H        -22.19042       40.90353       79.59233
H        -21.53540       39.38189       82.07106
H        -21.92252       38.71616       80.54396
H        -20.51990       39.65296       80.72829
N        -29.47469       42.62979       80.32441
C        -30.81284       42.13700       79.98950
C        -31.32269       42.78983       78.70755
O        -32.37716       42.39600       78.22995
C        -31.79022       42.20991       81.18057
C        -32.16751       43.58833       81.64608
O        -33.03514       43.71514       82.66755
O        -31.72805       44.58865       81.10482
H        -29.37523       43.56944       80.73500
H        -30.75607       41.05325       79.74528
H        -31.35000       41.65118       82.03520
H        -32.73090       41.69336       80.88860
N        -30.58136       43.72798       78.04509
C        -30.91186       44.23405       76.72633
C        -32.18291       45.04078       76.69140
O        -33.07008       44.72904       75.91093
H        -29.69011       44.05982       78.44033
H        -30.95860       43.38725       76.00849
H        -30.08983       44.90713       76.39519
N        -32.30030       46.13954       77.48028
C        -33.40060       47.09235       77.42277
C        -32.90161       48.48924       77.03267
O        -33.70736       49.40931       77.00384
C        -34.18345       47.08399       78.75694
C        -33.42545       47.46897       80.00179
O        -32.24780       47.77871       79.96851
O        -34.06864       47.46145       81.18386
H        -31.54006       46.32915       78.13667
H        -34.13274       46.79071       76.64139
H        -34.57973       46.05721       78.91211
H        -35.05222       47.77028       78.66049
N        -31.60303       48.71241       76.65882
C        -31.10159       49.99396       76.18659
C        -30.62925       50.92050       77.28911
O        -30.12074       51.98047       76.95496
H        -30.94905       47.92239       76.59229
H        -31.85549       50.49227       75.53758
H        -30.21241       49.79697       75.54927
N        -30.76342       50.61149       78.61175
C        -30.32662       51.49663       79.69226
C        -29.43839       50.77579       80.70399
O        -29.30914       49.56256       80.66298
C        -31.57363       52.10008       80.40337
C        -32.26085       53.12583       79.50292
O        -32.52629       51.12214       80.74619
H        -31.23261       49.73704       78.86973
H        -29.71157       52.33067       79.28824
H        -31.26200       52.64218       81.32269
H        -32.05635       50.27605       80.94544
H        -32.61330       52.65680       78.56060
H        -33.13647       53.55808       80.03255
H        -31.55796       53.95141       79.26117
N        -28.77681       51.51458       81.64494
C        -27.92268       50.97044       82.69989
C        -28.43675       51.49254       84.04222
O        -28.64212       52.69055       84.17263
C        -26.43421       51.38782       82.47081
C        -25.92997       50.85642       81.10103
C        -25.54395       50.84309       83.61186
C        -24.50775       51.29644       80.73990
H        -28.86710       52.54084       81.59970
H        -27.94075       49.85935       82.69520
H        -26.37023       52.49842       82.46916
H        -26.59354       51.23482       80.29517
H        -25.96756       49.74629       81.09510
H        -25.87655       51.23036       84.59421
H        -25.57481       49.73174       83.63687
H        -24.49120       51.16852       83.50142
H        -24.43799       52.40452       80.72800
H        -23.75667       50.88535       81.44379
H        -24.25068       50.91428       79.72916
N        -28.59189       50.65135       85.10521
C        -29.02108       51.08199       86.43667
C        -27.84418       51.05048       87.38824
O        -26.76503       50.64578       86.99916
C        -30.14886       50.15911       86.98357
C        -31.44178       50.26474       86.17766
O        -29.71313       48.82206       87.07080
H        -28.30372       49.67596       84.99329
H        -29.38345       52.13234       86.41086
H        -30.42127       50.47626       88.01160
H        -29.82300       48.39351       86.18270
H        -31.24473       49.96954       85.13492
H        -32.21040       49.58742       86.61025
H        -31.82746       51.30499       86.20178
N        -27.98900       51.47963       88.67112
C        -26.92628       51.38879       89.66913
C        -26.55307       49.93651       89.91655
O        -25.37060       49.62341       89.90889
C        -27.34542       52.07052       90.99409
C        -27.47596       53.58701       90.81989
O        -28.56358       51.55316       91.46897
H        -28.90150       51.86740       88.95105
H        -26.01911       51.92709       89.31052
H        -26.53496       51.92102       91.74800
H        -28.34848       50.85815       92.14340
H        -27.74165       54.05609       91.79027
H        -26.50712       54.01529       90.48177
H        -28.25716       53.84497       90.07512
N        -27.51757       48.98946       90.10202
C        -27.23763       47.57401       90.33952
C        -26.30780       47.01276       89.27821
O        -25.28025       46.45004       89.62924
C        -28.56709       46.78376       90.40137
C        -28.35392       45.29284       90.70952
C        -29.68917       44.56764       90.92439
C        -29.45837       43.08397       91.24613
N        -30.72207       42.40085       91.52118
H        -28.50368       49.28939       90.04443
H        -26.73772       47.47076       91.32851
H        -29.12525       46.88603       89.44353
H        -29.18614       47.22752       91.21226
H        -27.74873       45.19862       91.63717
H        -27.80267       44.81394       89.87061
H        -30.32096       44.65483       90.01311
H        -30.22364       45.04359       91.77587
H        -28.79948       42.99544       92.13861
H        -28.95154       42.59237       90.38588
H        -31.19010       42.83423       92.35040
H        -31.35330       42.45666       90.68943
H        -30.52758       41.39552       91.73365
N        -26.59214       47.16602       87.95870
C        -25.72712       46.67863       86.88597
C        -24.33290       47.27641       87.01937
O        -23.37597       46.52206       87.12805
C        -26.36536       46.99022       85.51420
C        -27.68199       46.19684       85.34241
C        -28.39715       46.54360       84.07645
O        -28.74285       47.68983       83.86187
O        -28.71039       45.60378       83.17565
H        -27.45081       47.68122       87.71784
H        -25.63003       45.57227       86.96101
H        -25.66793       46.70481       84.69806
H        -26.55210       48.08412       85.43928
H        -28.38240       46.41423       86.17125
H        -27.45991       45.10808       85.35659
N        -24.14621       48.62098       87.07667
C        -22.84862       49.22283       87.29384
H        -22.16089       48.96448       86.46275
H        -22.94946       50.32866       87.34853
H        -22.42376       48.86635       88.25731
H        -24.95525       49.23958       87.00112
Ca       -29.61818       46.52444       81.34552
O        -32.28696       49.08222       83.08370
H        -33.08527       48.76369       83.57217
H        -32.33145       50.06772       83.17130
O        -32.10400       46.25842       84.02336
H        -33.02127       46.29689       84.39498
H        -31.73063       45.40933       84.36847

Ca 1.0



