%chk=holoCaM.loop2.water1.frame236.chk
%nprocshared=20
%mem=10GB
%nosave
#b3lyp/svp scf=(tight,noincore,xqc) Test 
#IOP(5/87=12) Density=Current Pop=(MK,readradii) iop(6/33=2) iop(6/42=6)

holoCaM.loop2.water1.frame236 

   -2  1 
C         63.27926      102.77324       60.74845
C         62.10606      103.67451       60.99380
O         60.97955      103.22932       60.82675
H         64.23850      103.28457       60.97442
H         63.19678      101.88622       61.41384
H         63.28629      102.43705       59.69240
N         62.29160      104.94688       61.44613
C         61.17918      105.79207       61.85500
C         60.30294      106.18992       60.66915
O         60.74234      106.95163       59.81925
C         61.71184      107.01414       62.63463
C         60.67241      107.78000       63.40312
O         61.06806      108.80569       64.17309
O         59.49663      107.45623       63.39625
H         63.25663      105.27731       61.60325
H         60.59772      105.19143       62.57455
H         62.25766      107.69609       61.94677
H         62.43099      106.64805       63.39954
N         59.04817      105.66858       60.54516
C         58.12934      105.96310       59.44798
C         57.53396      107.37155       59.50127
O         56.79987      107.71199       58.58338
C         56.97737      104.94408       59.46869
H         58.76231      104.96239       61.23026
H         58.67506      105.82696       58.48818
H         56.29130      105.10003       58.60924
H         57.38389      103.91171       59.40001
H         56.39637      105.03185       60.41301
N         57.77104      108.23176       60.53643
C         57.18263      109.56854       60.63412
C         58.22075      110.67725       60.63480
O         57.84288      111.81384       60.38158
C         56.38391      109.70184       61.94787
C         55.14097      108.86959       61.96561
O         54.28641      109.05500       61.11538
O         54.90226      107.96705       62.93475
H         58.37060      107.92188       61.30586
H         56.50855      109.76714       59.77107
H         56.05837      110.75682       62.08168
H         57.04141      109.43485       62.79899
N         59.51447      110.46256       60.99657
C         60.46918      111.54027       61.17450
C         60.06530      112.42313       62.33418
O         59.99111      113.63362       62.17835
H         59.84229      109.51428       61.21803
H         60.59266      112.11811       60.23224
H         61.45140      111.09513       61.43980
N         59.78889      111.85139       63.54035
C         59.46338      112.58483       64.75797
C         60.42925      112.22082       65.89377
O         60.22459      112.67541       67.01048
C         57.98093      112.34888       65.12323
C         57.65009      110.96828       65.63669
N         56.99526      110.81864       66.81105
O         57.94396      109.98023       64.98514
H         59.80325      110.82563       63.59328
H         59.54870      113.67930       64.57566
H         57.36987      112.55414       64.21666
H         57.68100      113.09540       65.89102
H         56.70987      111.63547       67.37049
H         56.74456      109.88074       67.14975
N         61.53964      111.45250       65.66337
C         62.55013      111.14852       66.66418
C         62.18839      110.07456       67.67452
O         63.03993      109.80583       68.51114
H         61.76268      111.15784       64.70406
H         62.84675      112.08657       67.18068
H         63.45139      110.76569       66.13596
N         61.00055      109.39786       67.67377
C         60.68189      108.35033       68.65346
C         60.43650      107.01328       67.94366
O         60.40152      106.98829       66.71927
C         59.50473      108.86791       69.52576
C         59.05139      107.91674       70.63975
O         59.91142      110.07501       70.12073
H         60.28564      109.63202       66.96803
H         61.54831      108.17987       69.32965
H         58.64192      109.06551       68.85138
H         59.08861      110.58176       70.34890
H         59.90341      107.66346       71.30705
H         58.26180      108.40430       71.24915
H         58.59693      106.99659       70.22576
N         60.30935      105.84810       68.65092
C         60.12303      104.53177       68.04361
C         58.74209      104.00283       68.40541
O         58.39422      103.98805       69.57972
C         61.22670      103.52703       68.50458
C         62.64779      104.10220       68.27859
C         61.06093      102.18492       67.75456
C         63.76409      103.17658       68.77715
H         60.37393      105.87466       69.67811
H         60.20545      104.60500       66.94327
H         61.10270      103.34354       69.59529
H         62.74194      105.05262       68.84543
H         62.81014      104.32055       67.20068
H         61.77386      101.41690       68.11112
H         60.05840      101.75821       67.92782
H         61.20550      102.32813       66.66165
H         64.74563      103.68041       68.66039
H         63.61429      102.93303       69.85081
H         63.80863      102.23618       68.19118
N         57.93356      103.47834       67.44129
C         56.62676      102.88242       67.69510
C         56.74248      101.36868       67.63448
O         57.83170      100.87618       67.39094
C         55.61750      103.34186       66.62672
C         55.55625      104.82425       66.41371
O         54.49900      105.41917       66.54689
O         56.62565      105.47254       65.91242
H         58.29746      103.41766       66.48410
H         56.26320      103.16621       68.70727
H         54.60684      102.95941       66.88656
H         55.90500      102.90516       65.64459
N         55.68034      100.54994       67.86313
C         55.79988       99.09497       67.82222
C         56.16915       98.58494       66.42087
O         57.16716       97.88740       66.33569
C         54.54921       98.41685       68.42234
C         54.67802       96.91196       68.50812
C         55.72877       96.31639       69.23323
C         53.73159       96.08619       67.87756
C         55.83040       94.92498       69.31722
C         53.83375       94.69474       67.97095
C         54.88271       94.11468       68.68861
H         54.77250      100.97288       68.11575
H         56.62977       98.81738       68.51005
H         53.63852       98.69026       67.86366
H         54.41137       98.80309       69.45566
H         56.47052       96.92210       69.73683
H         52.90990       96.51757       67.31975
H         56.64250       94.47510       69.87411
H         53.09728       94.06570       67.48849
H         54.95981       93.03757       68.76018
N         55.46869       98.89474       65.27661
C         55.87117       98.47342       63.93138
C         57.33699       98.72696       63.63440
O         58.02131       97.85283       63.11991
C         55.02290       99.37073       63.01156
C         53.75504       99.51874       63.80782
C         54.29894       99.74900       65.21446
H         55.60851       97.40213       63.78703
H         55.45978      100.39493       62.95064
H         54.90292       98.98885       61.97508
H         53.05446      100.30336       63.45026
H         53.23570       98.53366       63.78463
H         54.61910      100.80137       65.36810
H         53.49613       99.48005       65.91927
N         57.86898       99.93487       63.94879
C         59.23636      100.35454       63.66962
C         60.22366       99.44086       64.37964
O         61.12936       98.92676       63.73934
C         59.41932      101.83127       64.09734
C         58.42887      102.76634       63.35253
C         58.49251      104.19885       63.79118
O         59.41646      104.62218       64.66999
O         57.68331      104.99680       63.34638
H         57.24405      100.59126       64.43700
H         59.42628      100.31318       62.57351
H         60.46073      102.15842       63.88323
H         59.24974      101.90157       65.18913
H         57.38287      102.45888       63.53243
H         58.61051      102.71003       62.25839
N         60.07171       99.15411       65.70052
C         60.94505       98.25836       66.42469
H         61.97311       98.67300       66.45799
H         60.57490       98.13739       67.46684
H         60.95262       97.25853       65.94098
H         59.28041       99.55491       66.20670
Ca        56.15084      107.29975       64.69131
O         56.92460      107.37477       67.95409
H         56.38707      107.97102       68.53255
H         56.88949      106.49639       68.40777

Ca 1.0



