%chk=holoCaM.loop3.water3.frame337.chk
%nprocshared=20
%mem=10GB
%nosave
#b3lyp/svp scf=(tight,noincore,xqc) Test 
#IOP(5/87=12) Density=Current Pop=(MK,readradii) iop(6/33=2) iop(6/42=6)

holoCaM.loop3.water3.frame337 

   0  1 
C         19.28585        8.51011        8.99424
C         20.47133        7.65984        9.32206
O         20.97629        6.97135        8.44524
H         18.42801        8.21511        9.63176
H         19.53902        9.57499        9.18385
H         19.00557        8.39635        7.92544
N         21.00052        7.68941       10.57591
C         22.20613        6.95587       10.91366
C         21.95100        5.45457       10.87809
O         21.09798        4.97848       11.61490
C         22.74522        7.38598       12.29379
C         24.14723        6.89454       12.47922
O         24.75392        7.12663       13.50064
O         24.74277        6.24386       11.47452
H         20.57174        8.30948       11.28038
H         22.96853        7.24610       10.15761
H         22.07874        7.01394       13.10124
H         22.78956        8.49313       12.35479
N         22.63421        4.65517       10.01089
C         22.32192        3.24070        9.82920
C         22.62647        2.39832       11.07173
O         21.88654        1.45551       11.31486
C         22.97148        2.72206        8.52273
C         22.31202        1.44907        7.95516
C         22.80953        1.18686        6.51784
C         22.01596        0.10015        5.77022
N         22.17247       -1.22610        6.36322
H         23.33087        5.09392        9.38919
H         21.22409        3.19950        9.64628
H         24.07047        2.60810        8.62835
H         22.78799        3.51136        7.75916
H         21.21502        1.62494        7.89955
H         22.50073        0.57765        8.61676
H         23.89359        0.94286        6.52363
H         22.67139        2.11891        5.92530
H         22.38189        0.06633        4.71922
H         20.93742        0.37512        5.74001
H         23.18298       -1.49386        6.37726
H         21.77823       -1.24582        7.32995
H         21.64943       -1.91762        5.77771
N         23.66257        2.69507       11.92188
C         23.91732        1.96522       13.17425
C         23.88441        2.86956       14.41697
O         24.11337        2.36149       15.50654
C         25.23505        1.15573       13.09721
C         26.50563        1.94832       12.98901
O         27.68408        1.29837       12.95795
O         26.49149        3.16353       12.93505
H         24.28981        3.47470       11.67668
H         23.12654        1.19964       13.33240
H         25.17923        0.46474       12.22928
H         25.31600        0.53325       14.01563
N         23.55585        4.19417       14.35016
C         23.41191        5.04811       15.52575
C         24.70325        5.44808       16.23005
O         24.59432        6.11017       17.25306
H         23.28685        4.59631       13.44531
H         22.73754        4.53930       16.24981
H         22.90987        5.99216       15.22562
N         25.94741        5.10449       15.77983
C         27.16899        5.41623       16.53441
C         27.50253        6.90954       16.63362
O         28.39537        7.25333       17.39464
C         28.38380        4.64658       15.96830
C         28.89180        5.19310       14.65183
N         30.17388        5.61148       14.53226
O         28.14785        5.25814       13.68777
H         26.01895        4.53752       14.92770
H         26.99937        5.02740       17.56335
H         28.10812        3.57664       15.84731
H         29.20602        4.69277       16.71454
H         30.82504        5.56281       15.32916
H         30.52263        5.98234       13.63661
N         26.86183        7.83988       15.87309
C         27.11296        9.26944       15.92829
C         27.60614        9.84776       14.61495
O         27.69416       11.06793       14.55299
H         26.14272        7.53359       15.22359
H         27.84909        9.53409       16.71725
H         26.15141        9.76338       16.18711
N         27.99557        9.07903       13.54736
C         28.51478        9.66513       12.30839
C         27.75876        9.16414       11.08392
O         27.05339        8.16877       11.17689
C         30.02481        9.37967       12.14069
C         30.85839        9.88025       13.30212
C         30.82004        9.23030       14.55017
C         31.70017       10.99436       13.14315
C         31.59736        9.69024       15.61604
C         32.47187       11.45813       14.21383
C         32.42245       10.80654       15.45456
O         33.16253       11.24119       16.49450
H         27.97846        8.05096       13.62761
H         28.39131       10.77032       12.33815
H         30.35371        9.88584       11.20642
H         30.21792        8.29438       12.01263
H         30.19793        8.35987       14.70188
H         31.75279       11.51258       12.19405
H         31.55836        9.17622       16.56860
H         33.10792       12.32353       14.07751
H         33.74459       12.01138       16.42609
N         27.82687        9.84851        9.90316
C         27.10486        9.47309        8.68426
C         27.97839        9.71836        7.45950
O         28.49707       10.81727        7.30181
C         25.75272       10.25090        8.56693
C         24.81110        9.81888        9.72547
C         25.08155        9.98217        7.19915
C         23.40185       10.41086        9.67235
H         28.35033       10.73927        9.89588
H         26.83482        8.39252        8.70857
H         25.94498       11.34503        8.62855
H         25.26347       10.12230       10.69178
H         24.70810        8.71267        9.71949
H         25.73221       10.30793        6.36269
H         24.84589        8.90552        7.07996
H         24.15229       10.57380        7.08295
H         23.44303       11.51852        9.66181
H         22.84556       10.04188        8.78564
H         22.83137       10.07980       10.56351
N         28.08121        8.76217        6.49204
C         28.78798        8.94280        5.22668
C         27.80163        8.96269        4.06661
O         26.60957        8.82273        4.29436
C         29.80435        7.80152        5.05362
O         29.13571        6.56744        5.00279
H         27.57433        7.87403        6.62791
H         29.33427        9.91150        5.21445
H         30.51204        7.83293        5.91386
H         30.38910        7.93083        4.11865
H         29.73404        5.89110        5.41290
N         28.22990        9.13297        2.78490
C         27.34333        9.08813        1.62204
C         26.67213        7.73194        1.50916
O         25.46439        7.67524        1.33188
C         28.13309        9.36005        0.33775
H         29.23912        9.28239        2.62575
H         26.56922        9.88527        1.70135
H         28.92833        8.59880        0.18963
H         27.45002        9.33989       -0.53956
H         28.60117       10.36593        0.38837
N         27.41084        6.59390        1.64760
C         26.86165        5.24176        1.58263
C         25.67132        5.07959        2.50417
O         24.62784        4.62213        2.05845
C         27.94748        4.22751        1.97284
H         28.41656        6.70032        1.85221
H         26.53840        5.02073        0.54202
H         28.81304        4.30908        1.28209
H         28.30736        4.41442        3.00900
H         27.54946        3.19197        1.91876
N         25.75758        5.46386        3.80352
C         24.66024        5.34204        4.75841
C         23.45489        6.12227        4.25511
O         22.38883        5.53912        4.11456
C         25.12153        5.78498        6.16804
C         26.30371        4.90313        6.63976
C         26.78750        5.23403        8.01124
O         27.89777        5.71063        8.18213
O         26.04184        4.89692        9.06797
H         26.64554        5.88740        4.10605
H         24.36794        4.27123        4.84836
H         24.27229        5.68429        6.88018
H         25.43430        6.84984        6.14520
H         27.16440        5.02124        5.95851
H         26.01134        3.83144        6.63230
N         23.57341        7.42453        3.88008
C         22.48730        8.16426        3.27416
H         21.63779        8.25266        3.98118
H         22.83435        9.18247        2.99320
H         22.15208        7.64911        2.34716
H         24.47860        7.89409        3.97494
Ca        26.72749        5.34592       11.14451
O         29.19582        3.29308       11.10311
H         30.08591        3.09689       10.71752
H         29.33748        3.25795       12.08209
O         29.66686        6.25478       10.44229
H         30.17045        5.90277       11.21796
H         30.36451        6.58415        9.82218
O         26.65413        2.27610        9.73291
H         25.82263        2.01148       10.19877
H         27.22877        1.47224        9.77087

Ca 1.0



