%chk=holoCaM-CaMKII.loop4.water1.frame459.chk
%nprocshared=20
%mem=10GB
%nosave
#b3lyp/svp scf=(tight,noincore,xqc) Test 
#IOP(5/87=12) Density=Current Pop=(MK,readradii) iop(6/33=2) iop(6/42=6)

holoCaM-CaMKII.loop4.water1.frame459 

   -3  1 
C         71.02668       56.44732       27.71240
C         70.50123       56.31467       26.31944
O         69.47299       55.68023       26.13552
H         71.95452       57.05640       27.73639
H         70.25957       56.94221       28.34364
H         71.24794       55.43876       28.11721
N         71.14571       56.90775       25.27919
C         70.64265       56.83666       23.91944
C         70.69222       55.39551       23.41857
O         71.75877       54.79887       23.48425
C         71.47305       57.75589       22.99723
C         70.74160       58.02107       21.72084
O         71.28131       58.64111       20.82716
O         69.45238       57.65426       21.61222
H         71.99641       57.46038       25.46980
H         69.59916       57.22378       23.94133
H         72.47207       57.30472       22.80816
H         71.62479       58.75249       23.46634
N         69.59004       54.77541       22.89810
C         69.58048       53.36208       22.51682
C         69.70230       53.22003       21.00272
O         70.69796       52.67076       20.55068
C         68.30892       52.63976       23.07255
C         68.14489       52.87011       24.59805
C         68.36315       51.13402       22.74003
C         66.83804       52.30833       25.16855
H         68.72766       55.32169       22.77639
H         70.47001       52.86037       22.96241
H         67.41415       53.07652       22.57879
H         68.11428       53.96106       24.79312
H         69.00759       52.43824       25.14994
H         68.45493       50.97250       21.64624
H         69.23057       50.65625       23.24423
H         67.43575       50.61511       23.05291
H         65.96603       52.74747       24.63754
H         66.79673       51.20355       25.09349
H         66.76061       52.57231       26.24445
N         68.72492       53.66116       20.15588
C         68.79814       53.49414       18.69678
C         69.93358       54.30321       18.04477
O         70.15696       54.12047       16.85619
C         67.43012       53.82859       18.03181
C         67.02127       55.26000       18.24317
O         67.86399       56.04976       18.91866
O         65.95148       55.68222       17.83773
H         67.87896       54.07780       20.57091
H         68.99038       52.41619       18.49694
H         66.65306       53.16872       18.47680
H         67.47741       53.62023       16.94170
N         70.70384       55.18847       18.74851
C         71.86919       55.85704       18.18988
C         71.56920       56.89447       17.12821
O         72.04932       56.73690       16.01429
H         70.52076       55.34841       19.74818
H         72.55865       55.08272       17.78517
H         72.41030       56.38386       19.00485
N         70.85964       58.02562       17.42325
C         70.70238       59.13852       16.48085
C         71.30089       60.45377       16.99019
O         71.30108       61.40129       16.21582
C         69.22208       59.34361       16.09480
C         68.31302       59.56482       17.26795
O         67.33706       58.84881       17.42109
O         68.54947       60.55972       18.14019
H         70.45024       58.11427       18.36449
H         71.24637       58.91726       15.53654
H         68.86554       58.45687       15.52912
H         69.14204       60.22443       15.42059
N         71.81248       60.61125       18.24875
C         72.37323       61.87121       18.72357
C         71.59294       62.50907       19.86216
O         71.96686       63.61371       20.23349
H         71.81963       59.82118       18.89567
H         72.40204       62.62015       17.90469
H         73.42395       61.70432       19.04686
N         70.52486       61.91229       20.47822
C         69.76557       62.57964       21.54459
C         68.92932       61.61907       22.38662
O         68.86885       60.43739       22.07819
C         68.93241       63.75184       20.95728
C         67.97765       63.41487       19.79049
C         66.76358       62.59455       20.15915
N         65.52663       63.13496       20.07432
O         66.88217       61.43046       20.50397
H         70.26328       60.95795       20.19987
H         70.49603       62.99432       22.27537
H         69.65151       64.49108       20.54661
H         68.36873       64.27607       21.75734
H         68.53131       62.92442       18.96428
H         67.62075       64.38841       19.39185
H         65.38861       64.11138       19.77756
H         64.69892       62.57345       20.30802
N         68.31311       62.05992       23.52768
C         67.58144       61.18076       24.44080
C         66.16838       61.70475       24.67735
O         66.00320       62.77026       25.25573
C         68.36989       61.04583       25.77644
C         67.60740       60.22210       26.82838
C         69.73361       60.38092       25.52527
H         68.42205       63.04986       23.79856
H         67.50186       60.15965       24.00743
H         68.54224       62.06000       26.20120
H         67.40262       59.19769       26.45643
H         68.20379       60.14870       27.76272
H         66.64953       60.71234       27.09412
H         70.34270       60.97024       24.80937
H         70.30740       60.29811       26.47239
H         69.58871       59.36092       25.11211
N         65.09679       60.97381       24.25899
C         63.69852       61.33309       24.50558
C         63.28686       61.01577       25.93581
O         64.08089       60.48028       26.69507
C         62.79763       60.50292       23.56136
C         63.05297       60.87041       22.12671
N         63.60343       59.98003       21.27179
O         62.76060       61.99024       21.73569
H         65.28716       60.11868       23.71724
H         63.53957       62.41423       24.29532
H         61.71790       60.67266       23.75555
H         63.00023       59.42165       23.73535
H         63.86718       59.03948       21.59639
H         63.78382       60.23705       20.29010
N         62.01476       61.28743       26.35195
C         61.47217       60.83755       27.62997
C         61.36123       59.32100       27.64051
O         61.70511       58.71309       28.64248
C         60.08065       61.45342       27.88596
C         59.53230       61.04517       29.23944
C         60.21096       61.39229       30.42335
C         58.34065       60.30661       29.32956
C         59.71015       61.00124       31.66872
C         57.84096       59.91811       30.57703
C         58.52574       60.26335       31.75114
O         58.05679       59.89290       32.95998
H         61.39014       61.80291       25.71316
H         62.13880       61.18392       28.45002
H         59.38898       61.14120       27.07268
H         60.15755       62.56197       27.85995
H         61.12961       61.96361       30.38692
H         57.79961       60.02592       28.43498
H         60.24467       61.27161       32.57122
H         56.92281       59.34698       30.62948
H         57.24139       59.38147       33.06161
N         60.86236       58.64179       26.56402
C         60.78120       57.18103       26.52822
C         62.15466       56.49272       26.54930
O         62.17682       55.27685       26.68040
C         59.91460       56.68914       25.34414
C         60.48896       56.98359       23.94912
C         59.54461       56.48952       22.88780
O         59.22767       55.18190       22.81752
O         59.05707       57.27064       22.08617
H         60.51550       59.18808       25.76249
H         60.23575       56.86675       27.44646
H         58.91292       57.16687       25.42972
H         59.77068       55.59004       25.44496
H         61.46687       56.47431       23.82200
H         60.64035       58.07488       23.81694
N         63.33077       57.19095       26.46616
C         64.65558       56.58353       26.61523
C         65.34935       57.05642       27.89437
O         66.41365       56.53788       28.20311
C         65.54992       56.91787       25.40334
C         64.98018       56.39633       24.08182
C         65.90402       56.71738       22.94139
O         66.35899       55.82005       22.25231
O         66.22483       57.99459       22.66177
H         63.29831       58.20445       26.32202
H         64.56285       55.47880       26.70234
H         66.55449       56.46256       25.55686
H         65.67096       58.02176       25.33705
H         63.99562       56.86804       23.88308
H         64.84481       55.29439       24.14929
N         64.81536       58.01992       28.69597
C         65.41925       58.44708       29.93663
H         66.43024       58.86141       29.74812
H         64.79054       59.23840       30.40299
H         65.47878       57.59114       30.64114
H         63.94994       58.48411       28.43136
Ca        68.05091       57.99906       19.92976
O         64.54558       57.53853       19.53691
H         63.59893       57.39539       19.78879
H         65.05381       56.94872       20.14751

Ca 1.0



