%chk=holoCaM.loop2.water1.frame234.chk
%nprocshared=20
%mem=10GB
%nosave
#b3lyp/svp scf=(tight,noincore,xqc) Test 
#IOP(5/87=12) Density=Current Pop=(MK,readradii) iop(6/33=2) iop(6/42=6)

holoCaM.loop2.water1.frame234 

   -2  1 
C         62.60945       97.33596       48.86308
C         61.83773       98.28423       47.99348
O         60.94345       97.84765       47.28472
H         63.39892       97.86567       49.43862
H         61.91983       96.84738       49.58165
H         63.09668       96.56437       48.23202
N         62.13013       99.61225       48.00604
C         61.42961      100.60103       47.19317
C         61.68939      100.28213       45.72240
O         62.82779      100.38372       45.28657
C         61.95639      101.99457       47.61585
C         61.36733      103.26445       47.06971
O         61.98074      104.29314       47.30027
O         60.23390      103.36184       46.34828
H         62.88312       99.93049       48.63703
H         60.34966      100.54561       47.42886
H         63.03953      102.01202       47.36408
H         61.87317      102.08593       48.72189
N         60.67911       99.85575       44.90963
C         60.85319       99.51499       43.49792
C         60.35690      100.63528       42.60065
O         60.39212      100.47998       41.38785
C         60.10536       98.21215       43.18142
H         59.72829       99.80468       45.29634
H         61.92834       99.36113       43.25888
H         60.48365       97.38026       43.81081
H         59.01503       98.33554       43.36225
H         60.25104       97.93284       42.11440
N         59.93908      101.81838       43.12881
C         59.49534      102.96048       42.34777
C         60.48764      104.10938       42.47738
O         60.31854      105.10018       41.78057
C         58.14393      103.44735       42.90950
C         57.10298      102.36527       43.01821
O         56.82035      101.83003       44.22836
O         56.54530      101.94172       42.01926
H         59.97106      101.94519       44.14250
H         59.40789      102.68332       41.27552
H         57.73982      104.31382       42.34322
H         58.35225      103.81106       43.93395
N         61.49909      104.08631       43.40016
C         62.38977      105.20046       43.64920
C         61.61550      106.45769       43.96294
O         61.87308      107.46528       43.31957
H         61.63708      103.27288       44.01312
H         63.04927      105.36396       42.76923
H         63.03695      104.94947       44.51908
N         60.62474      106.46491       44.90745
C         59.83491      107.65546       45.21751
C         59.99766      108.09605       46.67033
O         59.79491      109.27143       46.94002
C         58.36628      107.46975       44.77163
C         57.52868      106.58819       45.66154
N         57.14216      107.01985       46.88211
O         57.13516      105.50643       45.25612
H         60.39828      105.58393       45.38192
H         60.22098      108.49361       44.59835
H         58.38481      107.05012       43.74001
H         57.85347      108.45282       44.71734
H         57.41105      107.94994       47.23276
H         56.53514      106.43267       47.46478
N         60.38586      107.22340       47.65106
C         60.70992      107.61795       49.01311
C         59.88793      106.92813       50.08741
O         60.21138      107.13878       51.24805
H         60.51506      106.23229       47.42855
H         60.61502      108.71564       49.15635
H         61.77506      107.35071       49.18220
N         58.80188      106.14226       49.81538
C         57.97300      105.53979       50.86586
C         57.79126      104.03730       50.64408
O         58.34569      103.48827       49.70090
C         56.61734      106.28948       50.96702
C         56.82554      107.77492       51.29214
O         55.89306      106.15621       49.77661
H         58.50553      106.01634       48.83879
H         58.45872      105.65231       51.86026
H         56.03008      105.85477       51.80515
H         54.95640      106.41904       49.97595
H         57.39121      107.88235       52.24285
H         57.38138      108.28763       50.47942
H         55.84302      108.27711       51.41447
N         57.01689      103.31174       51.50428
C         56.81014      101.86830       51.44054
C         55.35173      101.56887       51.10234
O         54.45657      102.05596       51.77920
C         57.24543      101.23347       52.80226
C         58.78458      101.36694       52.96138
C         56.81045       99.75936       52.91200
C         59.32872      100.85093       54.29610
H         56.54599      103.80269       52.27768
H         57.43547      101.40751       50.64717
H         56.73848      101.78039       53.62888
H         59.06802      102.43803       52.88429
H         59.29263      100.81556       52.13877
H         55.70770       99.67803       52.85041
H         57.27585       99.15182       52.11111
H         57.07229       99.32998       53.89887
H         58.85496      101.39222       55.14133
H         59.16419       99.76072       54.41322
H         60.42570      101.01892       54.33345
N         55.06350      100.68747       50.09742
C         53.72476      100.20260       49.76894
C         53.49441       98.86045       50.44411
O         54.37089       98.39638       51.15204
C         53.59138      100.03822       48.23890
C         53.75911      101.33344       47.50734
O         52.90107      102.34711       47.72871
O         54.65201      101.46251       46.68503
H         55.84951      100.22638       49.62139
H         52.94720      100.90250       50.14749
H         52.58899       99.64281       47.97608
H         54.35272       99.30586       47.88421
N         52.32274       98.18232       50.29952
C         52.06218       96.91480       50.97383
C         53.03512       95.80154       50.56048
O         53.62881       95.22194       51.45809
C         50.59865       96.46611       50.77015
C         50.23141       95.33223       51.70195
C         50.22414       95.54328       53.09435
C         49.88314       94.06649       51.20152
C         49.87854       94.50919       53.96685
C         49.54023       93.03201       52.08060
C         49.53742       93.25370       53.46104
H         51.57537       98.60109       49.72458
H         52.18450       97.10496       52.06335
H         50.43316       96.18580       49.71217
H         49.91189       97.31038       50.99586
H         50.47865       96.51148       53.50703
H         49.88071       93.87803       50.13549
H         49.87343       94.68371       55.03541
H         49.27490       92.05735       51.69272
H         49.26930       92.45428       54.13973
N         53.26947       95.42806       49.25717
C         54.15283       94.32582       48.88192
C         55.59290       94.59033       49.28186
O         56.26603       93.66230       49.70934
C         53.95164       94.20332       47.36332
C         53.62721       95.61597       46.94231
C         52.71643       96.07635       48.07925
H         53.84014       93.35603       49.32912
H         54.77358       93.70169       46.80777
H         53.01757       93.62108       47.19198
H         54.57111       96.19879       46.96505
H         53.19064       95.72980       45.92732
H         52.76604       97.17986       48.10230
H         51.67704       95.72120       47.92495
N         56.11888       95.83944       49.20977
C         57.48865       96.16852       49.58829
C         57.69895       95.84666       51.05580
O         58.60336       95.09210       51.38379
C         57.76626       97.65941       49.29823
C         57.59210       97.96163       47.79586
C         57.72435       99.40670       47.45364
O         58.03892      100.33126       48.38097
O         57.49958       99.75120       46.30761
H         55.49698       96.59919       48.90630
H         58.20302       95.57478       48.97366
H         58.80259       97.92184       49.60700
H         57.05681       98.27893       49.88369
H         56.57986       97.67912       47.45303
H         58.32623       97.37613       47.20329
N         56.85307       96.35345       51.99070
C         56.94896       96.04643       53.39813
H         56.12340       96.55249       53.94529
H         56.85092       94.95115       53.55283
H         57.91789       96.40463       53.80122
H         56.08734       96.95843       51.68680
Ca        58.33683      102.24915       45.87155
O         55.56484      104.00291       47.77136
H         55.51519      103.69876       48.71209
H         54.66338      104.36614       47.58113

Ca 1.0



