%chk=holoCaM-CaMKII.loop1.water2.frame281.chk
%nprocshared=20
%mem=10GB
%nosave
#b3lyp/svp scf=(tight,noincore,xqc) Test 
#IOP(5/87=12) Density=Current Pop=(MK,readradii) iop(6/33=2) iop(6/42=6)

holoCaM-CaMKII.loop1.water2.frame281 

   0  1 
C         47.26060       37.92420       69.53569
C         48.46862       38.59346       68.95413
O         49.19902       37.94921       68.21864
H         46.59405       37.58128       68.71784
H         47.58485       37.04800       70.13641
H         46.69412       38.61265       70.19736
N         48.74379       39.89622       69.23346
C         49.93527       40.57266       68.73653
C         51.16884       39.94852       69.37591
O         51.26048       39.97476       70.59579
C         49.83397       42.07835       69.06031
C         50.99793       42.85801       68.53518
O         51.25524       42.85529       67.34331
O         51.74893       43.58330       69.38086
H         48.07828       40.42313       69.82126
H         49.96842       40.47399       67.63035
H         49.75660       42.22861       70.15998
H         48.91159       42.48630       68.59185
N         52.14872       39.36051       68.62102
C         53.32126       38.71239       69.21328
C         54.62547       39.43876       68.87730
O         55.65787       38.99852       69.36520
C         53.40854       37.22011       68.79939
C         52.11038       36.43996       69.08273
C         52.22606       34.92512       68.81472
C         53.10989       34.15012       69.81463
N         52.56837       34.18465       71.17651
H         52.05844       39.35987       67.59472
H         53.24021       38.72890       70.32192
H         54.24514       36.76567       69.36977
H         53.63823       37.13400       67.71415
H         51.34162       36.83465       68.39309
H         51.75597       36.61384       70.11864
H         52.61496       34.76992       67.78468
H         51.20783       34.47961       68.85623
H         54.15138       34.53389       69.81096
H         53.14823       33.08869       69.48202
H         52.59436       35.15321       71.56523
H         51.58647       33.82307       71.18467
H         53.15189       33.57346       71.79220
N         54.66985       40.56379       68.09780
C         55.90140       41.31784       67.83241
C         55.84167       42.72993       68.42257
O         56.78843       43.47911       68.22813
C         56.22234       41.32588       66.31953
C         55.12395       41.92318       65.50758
O         54.76962       43.07319       65.67286
O         54.45828       41.14398       64.65613
H         53.79659       40.93177       67.69208
H         56.77367       40.82717       68.31508
H         56.36242       40.27075       65.99421
H         57.16818       41.87132       66.11904
N         54.80924       43.13889       69.22016
C         54.80342       44.41423       69.92618
C         54.50905       45.64153       69.08232
O         54.50278       46.72387       69.65238
H         54.05159       42.48065       69.44628
H         55.77111       44.53635       70.45829
H         54.00569       44.38092       70.69957
N         54.21926       45.57970       67.75085
C         53.87868       46.76299       66.95749
C         52.50883       47.36366       67.31337
O         52.14877       48.36594       66.71162
C         54.01403       46.48192       65.43900
C         53.09427       45.44546       64.85813
O         52.20628       44.78548       65.61960
O         53.17197       45.18367       63.66921
H         54.25668       44.67003       67.28643
H         54.65008       47.54064       67.15706
H         55.05833       46.15432       65.24045
H         53.85180       47.43266       64.88505
N         51.71457       46.85082       68.30349
C         50.46800       47.46899       68.73475
C         49.29222       47.24113       67.80727
O         48.22702       47.76373       68.10863
H         52.02896       46.04283       68.84921
H         50.63767       48.55657       68.89447
H         50.17609       47.03299       69.71443
N         49.38163       46.47120       66.68719
C         48.26902       46.23587       65.77291
C         47.98546       44.74916       65.62948
O         48.91790       43.96282       65.50927
C         48.55764       46.86151       64.38969
C         48.68643       48.39114       64.46728
O         49.69109       46.28899       63.78767
H         50.28196       46.03667       66.45441
H         47.33914       46.72833       66.13698
H         47.68570       46.65256       63.73076
H         50.49809       46.66713       64.22311
H         49.54613       48.68668       65.10537
H         48.83838       48.80748       63.44945
H         47.75961       48.83220       64.89306
N         46.69881       44.31392       65.52007
C         46.31472       42.92784       65.27732
C         45.87093       42.80759       63.82945
O         45.02516       43.58191       63.39583
C         45.17361       42.48865       66.24691
C         45.62136       42.61976       67.72520
C         44.72987       41.04012       65.93626
C         44.49876       42.33370       68.72908
H         45.94277       45.01805       65.52960
H         47.17619       42.24310       65.44214
H         44.30204       43.16158       66.08278
H         45.95829       43.66148       67.91160
H         46.47521       41.93659       67.92730
H         43.87203       40.72977       66.56359
H         44.37772       40.94932       64.88969
H         45.56973       40.32961       66.09324
H         44.15015       41.28311       68.67206
H         44.87233       42.50016       69.76083
H         43.63985       43.01532       68.54942
N         46.36073       41.80880       63.04208
C         45.94145       41.57454       61.66492
C         45.05438       40.34995       61.61217
O         44.89263       39.69025       62.62911
C         47.17194       41.37844       60.73582
C         48.09494       42.60151       60.70358
O         47.89336       40.21963       61.08582
H         46.99313       41.12066       63.47127
H         45.33600       42.43269       61.29785
H         46.81141       41.23095       59.69567
H         48.46281       40.42504       61.87109
H         48.50225       42.80975       61.71482
H         48.94334       42.40504       60.01237
H         47.54110       43.49284       60.34453
N         44.42009       39.98487       60.46656
C         43.60275       38.77583       60.38698
C         44.46031       37.52712       60.53466
O         43.94722       36.49915       60.94942
C         42.81888       38.69547       59.05982
C         41.81589       39.84713       58.92915
O         43.71460       38.71085       57.97682
H         44.52350       40.58790       59.63461
H         42.85976       38.79776       61.21767
H         42.24444       37.73868       59.06440
H         43.23397       38.32466       57.19916
H         41.09944       39.82535       59.77801
H         42.32800       40.83129       58.91740
H         41.24290       39.73862       57.98476
N         45.76974       37.54076       60.15487
C         46.64965       36.38079       60.24807
C         46.80246       35.98775       61.70384
O         46.56990       34.83795       62.05151
C         48.02972       36.69010       59.60899
C         47.88971       37.04395       58.11228
C         49.24140       37.27341       57.42660
C         49.02627       37.68919       55.96093
N         50.29867       37.87464       55.26562
H         46.15670       38.41748       59.78332
H         46.21466       35.53054       59.67684
H         48.67191       35.78648       59.70235
H         48.52882       37.52910       60.14250
H         47.28987       37.96961       57.99598
H         47.36149       36.21750       57.58858
H         49.83692       36.33551       57.46798
H         49.79993       38.07814       57.95314
H         48.45133       38.64252       55.93001
H         48.43435       36.90932       55.43190
H         50.86807       38.61120       55.74168
H         50.82831       36.97323       55.24376
H         50.10774       38.17718       54.28262
N         47.14726       36.93277       62.61738
C         47.28327       36.69160       64.05184
C         45.97806       36.18228       64.62634
O         45.96516       35.10846       65.21155
C         47.73709       37.99186       64.75873
C         49.13516       38.36586       64.25417
C         49.66755       39.65793       64.76380
O         50.90120       39.64809       65.26550
O         49.12136       40.71717       64.51174
H         47.28842       37.88968       62.26178
H         48.06806       35.92034       64.22789
H         47.78106       37.84213       65.85917
H         47.01648       38.81103       64.54291
H         49.15273       38.46118       63.15253
H         49.84484       37.55184       64.52186
N         44.82862       36.88719       64.46444
C         43.55274       36.41856       64.95279
H         42.75586       37.13905       64.66912
H         43.31423       35.43287       64.49911
H         43.58025       36.32774       66.05827
H         44.85379       37.77475       63.95540
Ca        52.25409       41.31804       64.72275
O         51.79064       40.35113       61.91544
H         51.30944       41.06200       61.42326
H         52.69631       40.72313       62.06474
O         50.92207       43.79459       62.30107
H         50.99867       44.77576       62.20472
H         50.98043       43.46074       61.37176

Ca 1.0



