%chk=holoCaM-CaMKII.loop3.water2.frame75.chk
%nprocshared=20
%mem=10GB
%nosave
#b3lyp/svp scf=(tight,noincore,xqc) Test 
#IOP(5/87=12) Density=Current Pop=(MK,readradii) iop(6/33=2) iop(6/42=6)

holoCaM-CaMKII.loop3.water2.frame75 

   0  1 
C         89.25800       44.89978       94.27463
C         90.40356       44.38438       95.09196
O         90.80301       43.24887       94.90499
H         88.42388       45.19331       94.94679
H         89.58865       45.78536       93.69288
H         88.89229       44.12211       93.57040
N         90.97569       45.18491       96.02995
C         92.08136       44.80208       96.89880
C         91.57788       44.83186       98.32826
O         91.93895       45.71298       99.09361
C         93.27728       45.73875       96.61883
C         94.43472       45.58002       97.57709
O         94.78942       46.55028       98.22381
O         95.09912       44.41560       97.74138
H         90.59346       46.13648       96.14882
H         92.43768       43.77547       96.70201
H         92.92610       46.79255       96.67557
H         93.63959       45.55364       95.58523
N         90.70325       43.87318       98.74673
C         90.16823       43.81789      100.10580
C         91.20632       43.36492      101.13953
O         90.86503       43.34893      102.31435
C         88.91149       42.91771      100.16299
C         87.81600       43.43722       99.21055
C         86.51408       42.63691       99.33629
C         85.41576       43.14177       98.38057
N         85.74945       42.91276       96.97169
H         90.39448       43.17008       98.05807
H         89.82635       44.83934      100.38740
H         88.50914       42.93394      101.20051
H         89.17346       41.86812       99.90400
H         88.18759       43.37630       98.17064
H         87.59665       44.50187       99.44725
H         86.14113       42.74585      100.37849
H         86.70139       41.55857       99.14374
H         85.22649       44.22491       98.55365
H         84.47754       42.59180       98.61304
H         86.57932       43.47554       96.68098
H         85.93200       41.89606       96.80698
H         84.94004       43.20713       96.37917
N         92.48877       43.02355      100.79888
C         93.52833       42.69545      101.77874
C         94.58124       43.80057      101.86734
O         95.48000       43.68903      102.68970
C         94.16235       41.31266      101.49925
C         94.86720       41.20238      100.17354
O         94.23978       41.27276       99.13055
O         96.19249       40.96779      100.13332
H         92.76840       43.05867       99.81166
H         93.08430       42.63380      102.79645
H         93.38035       40.52516      101.55264
H         94.89965       41.10333      102.30579
N         94.49046       44.93277      101.11179
C         95.34347       46.09362      101.27465
C         96.78071       45.92537      100.83706
O         97.50576       46.90113      100.97700
H         93.71768       45.03973      100.45359
H         95.31297       46.41112      102.33927
H         94.91819       46.93082      100.68116
N         97.29901       44.76569      100.32642
C         98.72826       44.66640      100.03268
C         99.19187       45.56963       98.88790
O        100.39229       45.78111       98.78596
C         99.21062       43.21562       99.80524
C         98.67956       42.52455       98.57427
N         99.24459       41.36605       98.16579
O         97.75582       43.00056       97.93636
H         96.70150       43.93308      100.22557
H         99.25207       45.00729      100.95457
H         98.97707       42.58619      100.69128
H        100.31713       43.26033       99.71039
H        100.03634       40.95661       98.68296
H         98.91321       40.89339       97.31405
N         98.32723       46.10236       97.97326
C         98.74880       46.99474       96.89828
C         98.63613       46.37779       95.51446
O         98.93414       47.07655       94.55600
H         97.32836       45.86545       98.02425
H         99.81116       47.29856       97.02151
H         98.13494       47.91881       96.95215
N         98.29006       45.07078       95.32740
C         98.30929       44.39670       94.03296
C         96.98171       43.70800       93.77132
O         96.61409       42.82840       94.53570
C         99.41682       43.32473       94.04972
C        100.78612       43.91782       94.26183
C        101.33910       43.98346       95.55208
C        101.52860       44.39491       93.17008
C        102.61526       44.51931       95.74606
C        102.80980       44.92057       93.36495
C        103.35739       44.98426       94.65507
O        104.59275       45.48525       94.85740
H         98.07657       44.49301       96.14469
H         98.52881       45.11339       93.21072
H         99.41630       42.73834       93.10422
H         99.20696       42.60026       94.86815
H        100.78037       43.62496       96.40803
H        101.12091       44.34717       92.16784
H        103.02941       44.56815       96.74530
H        103.37672       45.27451       92.51300
H        105.14379       45.80624       94.12929
N         96.22223       44.02747       92.68721
C         95.00625       43.29797       92.33208
C         95.39220       42.04728       91.56387
O         96.10280       42.15724       90.57341
C         94.04302       44.18539       91.48680
C         93.60624       45.42047       92.31779
C         92.80857       43.36637       91.03891
C         92.73994       46.41332       91.54103
H         96.55396       44.76938       92.05123
H         94.44104       43.02216       93.25230
H         94.58058       44.52994       90.57507
H         94.50812       45.97476       92.65350
H         93.04945       45.08794       93.22139
H         92.13276       43.96291       90.39662
H         93.11091       42.49618       90.42122
H         92.24143       42.99513       91.91987
H         93.28213       46.77188       90.64068
H         91.77289       45.96513       91.23779
H         92.51029       47.28421       92.18989
N         94.88768       40.83240       91.92528
C         95.14104       39.60474       91.17831
C         93.87869       39.13907       90.46461
O         92.83353       39.76040       90.60105
C         95.70515       38.52421       92.11724
O         94.77048       38.17193       93.10368
H         94.24589       40.78742       92.72898
H         95.89719       39.78823       90.38415
H         96.65676       38.88103       92.57640
H         95.96745       37.60865       91.54762
H         95.00319       38.68118       93.92285
N         93.93181       38.06185       89.63235
C         92.80576       37.59091       88.83149
C         91.63732       37.14541       89.68327
O         90.52476       37.58072       89.42281
C         93.24317       36.42446       87.93896
H         94.83653       37.57695       89.52904
H         92.47305       38.40788       88.15124
H         94.06815       36.75011       87.27036
H         93.59332       35.56521       88.54945
H         92.39326       36.09225       87.30391
N         91.81025       36.25229       90.69856
C         90.70268       35.73092       91.49178
C         89.93206       36.84050       92.17578
O         88.74119       36.96906       91.92414
C         91.21247       34.72777       92.53483
H         92.76594       35.91782       90.89718
H         90.01112       35.18387       90.81223
H         90.36129       34.31545       93.11811
H         91.73159       33.88680       92.02897
H         91.92663       35.20774       93.23760
N         90.53897       37.67375       93.06685
C         89.80240       38.70891       93.78647
C         89.24450       39.80644       92.87716
O         88.46879       40.61815       93.36297
C         90.67407       39.31982       94.90046
C         91.85836       40.12994       94.35567
C         92.63540       40.75730       95.46699
O         93.97657       40.73437       95.46892
O         92.05694       41.40839       96.31940
H         91.53684       37.52160       93.27526
H         88.94441       38.20703       94.28680
H         91.04597       38.50954       95.56462
H         90.03333       39.99533       95.51107
H         91.46457       40.95625       93.72741
H         92.52989       39.51644       93.72386
N         89.60932       39.91157       91.56653
C         89.09756       40.92085       90.66170
H         88.36085       41.59441       91.14627
H         89.94054       41.53334       90.27793
H         88.60203       40.42037       89.80266
H         90.29678       39.25944       91.17709
Ca        94.75596       42.52365       96.57928
O         95.46173       38.84749       97.45726
H         95.24950       38.34040       98.28050
H         95.59199       38.15287       96.76360
O         97.37585       40.01271       95.30421
H         98.11566       40.29778       94.71159
H         97.77620       39.31262       95.87860

Ca 1.0



