%chk=holoCaM-CaMKII.loop3.water1.frame330.chk
%nprocshared=20
%mem=10GB
%nosave
#b3lyp/svp scf=(tight,noincore,xqc) Test 
#IOP(5/87=12) Density=Current Pop=(MK,readradii) iop(6/33=2) iop(6/42=6)

holoCaM-CaMKII.loop3.water1.frame330 

   0  1 
C         32.15358       52.79459       67.97005
C         31.50804       51.72161       68.79309
O         30.60585       51.05514       68.30835
H         33.23600       52.57441       67.85976
H         31.69239       52.85045       66.96136
H         32.03105       53.77588       68.47532
N         31.92221       51.51615       70.07211
C         31.36122       50.50683       70.95812
C         30.65096       51.22411       72.09157
O         31.22482       52.11436       72.70456
C         32.48197       49.58236       71.44791
C         31.99952       48.42468       72.27982
O         30.68964       48.20132       72.52330
O         32.82762       47.67910       72.77737
H         32.66745       52.12452       70.44762
H         30.63178       49.86865       70.41181
H         33.20413       50.17932       72.04708
H         33.01736       49.16054       70.56992
N         29.35702       50.91427       72.36916
C         28.49194       51.69824       73.24693
C         29.00993       51.84833       74.67380
O         28.55333       52.75978       75.35013
C         27.08074       51.07402       73.18549
C         25.91990       51.90563       73.73947
C         24.60839       51.17599       73.39221
C         23.35838       51.98629       73.73878
N         22.15621       51.27370       73.30012
H         28.93985       50.12658       71.84888
H         28.45514       52.71760       72.80081
H         27.09961       50.07126       73.66791
H         26.85565       50.93149       72.10424
H         25.92503       52.89840       73.23889
H         26.01133       52.05117       74.83730
H         24.57766       50.19387       73.91448
H         24.58407       50.98932       72.29516
H         23.40369       52.96904       73.21860
H         23.31250       52.16461       74.83503
H         21.31166       51.84816       73.52071
H         22.18977       51.11413       72.26582
H         22.08221       50.35267       73.79026
N         29.93539       50.99745       75.21066
C         30.45381       51.14969       76.57409
C         31.97454       50.97686       76.67445
O         32.49077       51.11998       77.77498
C         29.71973       50.16219       77.51098
C         29.98771       48.71676       77.21822
O         29.35322       47.75829       77.91790
O         30.79833       48.40019       76.37068
H         30.20758       50.17030       74.66216
H         30.21535       52.16716       76.95435
H         28.62765       50.34215       77.41596
H         30.01080       50.35187       78.56631
N         32.75525       50.63349       75.60373
C         34.18300       50.37567       75.71407
C         34.45365       49.19924       76.62778
O         35.13829       49.37928       77.62475
H         32.34267       50.52852       74.66868
H         34.69669       51.28902       76.08897
H         34.59624       50.14001       74.70913
N         33.92800       47.96689       76.35165
C         34.09570       46.80345       77.23479
C         34.80754       45.63107       76.56905
O         35.10399       44.67669       77.27618
C         32.72158       46.36994       77.82066
C         31.77522       45.59497       76.85797
N         31.92342       44.15866       77.01973
O         32.08231       45.93247       75.54201
H         33.35939       47.88366       75.49921
H         34.72449       47.10930       78.09863
H         32.21868       47.29103       78.17860
H         32.87788       45.75200       78.73142
H         31.67910       43.90661       78.00469
H         31.19324       43.72170       76.41834
N         35.11138       45.61113       75.23463
C         35.84851       44.52489       74.60544
C         35.10297       43.80658       73.49369
O         35.71721       42.94480       72.88709
H         34.84897       46.40576       74.63333
H         36.15630       43.75620       75.34532
H         36.77556       44.95804       74.17110
N         33.81219       44.09889       73.14234
C         33.15360       43.43848       72.00728
C         31.84052       44.10300       71.61454
O         31.32107       44.93066       72.34276
C         32.92223       41.92490       72.23714
C         32.03173       41.62664       73.42080
C         30.65664       41.39509       73.24065
C         32.57483       41.55201       74.71371
C         29.83870       41.10698       74.33806
C         31.75852       41.24549       75.80632
C         30.38849       41.03032       75.62582
O         29.61312       40.75528       76.69428
H         33.32215       44.84602       73.64477
H         33.82163       43.57555       71.12861
H         33.87445       41.36820       72.35411
H         32.46096       41.49812       71.32001
H         30.21538       41.44666       72.25289
H         33.63185       41.71848       74.87591
H         28.77919       40.94215       74.18663
H         32.19024       41.18680       76.79776
H         28.65938       40.61047       76.61553
N         31.29777       43.81333       70.39206
C         30.13316       44.50437       69.85208
C         29.15447       43.50409       69.24438
O         29.58869       42.60115       68.54456
C         30.62586       45.58574       68.84128
C         29.54726       46.67190       68.63107
C         31.11653       44.98842       67.50696
C         30.06926       47.89594       67.87830
H         31.80981       43.17072       69.77201
H         29.62749       45.06046       70.66888
H         31.48080       46.10318       69.33314
H         29.23332       47.04643       69.62945
H         28.66189       46.24906       68.11505
H         31.56322       45.76803       66.85925
H         31.89751       44.22143       67.68033
H         30.27237       44.52657       66.95093
H         30.33262       47.65040       66.83053
H         29.28692       48.68145       67.86775
H         30.96039       48.31101       68.39582
N         27.80999       43.65150       69.41309
C         26.82040       42.77068       68.78815
C         26.08055       43.52421       67.69891
O         26.37122       44.68784       67.48806
C         25.85417       42.24907       69.86328
O         25.17707       43.31974       70.46479
H         27.46812       44.45976       69.95228
H         27.31088       41.89903       68.30353
H         26.44046       41.69736       70.63112
H         25.11740       41.55457       69.40245
H         24.57916       42.92288       71.14949
N         25.11514       42.92709       66.94239
C         24.36971       43.67782       65.93456
C         23.57433       44.80649       66.57753
O         23.37397       45.82888       65.93649
C         23.43513       42.76216       65.13810
H         24.90269       41.92905       67.09108
H         25.09461       44.10987       65.20785
H         22.67877       42.29261       65.80148
H         22.91215       43.34389       64.34781
H         24.02533       41.96225       64.64077
N         23.08095       44.67985       67.84430
C         22.32315       45.72555       68.52183
C         23.18032       46.95002       68.78795
O         22.81827       48.03242       68.34898
C         21.76634       45.19985       69.85099
H         23.23412       43.79025       68.34364
H         21.44837       46.00345       67.89195
H         21.11018       44.32399       69.66167
H         22.58235       44.88564       70.53601
H         21.16278       45.98797       70.34988
N         24.32814       46.84885       69.52022
C         25.17788       47.99274       69.85072
C         25.64432       48.67371       68.57722
O         25.38669       49.85694       68.40696
C         26.38691       47.55576       70.71280
C         25.95849       47.01271       72.08904
C         27.14700       46.62809       72.92262
O         27.90236       45.74479       72.55009
O         27.36997       47.24093       74.10092
H         24.60655       45.91265       69.84774
H         24.59284       48.72816       70.44850
H         27.04370       48.43780       70.88387
H         26.96969       46.78299       70.17130
H         25.31109       46.11793       71.98043
H         25.38263       47.79829       72.62467
N         26.28927       47.96133       67.61618
C         26.68774       48.49836       66.33211
H         27.77431       48.34852       66.18246
H         26.15168       47.94839       65.53012
H         26.45791       49.57908       66.23585
H         26.47289       46.97099       67.78799
Ca        30.42992       46.87711       74.31140
O         28.70290       44.63219       75.65176
H         27.74086       44.69529       75.87553
H         28.84926       43.67327       75.45558

Ca 1.0



