%chk=holoCaM-CaMKII.loop4.water1.frame360.chk
%nprocshared=20
%mem=10GB
%nosave
#b3lyp/svp scf=(tight,noincore,xqc) Test 
#IOP(5/87=12) Density=Current Pop=(MK,readradii) iop(6/33=2) iop(6/42=6)

holoCaM-CaMKII.loop4.water1.frame360 

   -3  1 
C         52.69744       54.49406       13.86706
C         51.89714       54.03041       12.68376
O         50.67849       54.01688       12.76213
H         53.78725       54.48141       13.65002
H         52.40475       55.53064       14.13305
H         52.50701       53.82477       14.73224
N         52.52788       53.60177       11.55756
C         51.84224       53.11182       10.37030
C         52.07092       51.62018       10.26262
O         53.20880       51.17980       10.35905
C         52.38064       53.83296        9.12510
C         51.77043       53.25754        7.87958
O         52.47648       52.68136        7.06872
O         50.44220       53.32744        7.67764
H         53.55996       53.57890       11.55208
H         50.74603       53.30085       10.42659
H         53.48514       53.70946        9.07711
H         52.15346       54.92015        9.18026
N         51.01781       50.78514       10.02970
C         51.13794       49.33328       10.01132
C         51.03380       48.78584        8.58336
O         51.43933       47.64965        8.38255
C         50.05406       48.72627       10.96870
C         50.13117       49.36579       12.38680
C         50.15658       47.19032       11.06460
C         48.93210       49.02130       13.27818
H         50.08382       51.19519        9.87689
H         52.14960       49.04889       10.37755
H         49.06009       48.98638       10.53939
H         50.11927       50.47289       12.30328
H         51.07712       49.07183       12.89124
H         50.01508       46.71243       10.07691
H         51.14387       46.89289       11.47817
H         49.35906       46.76916       11.70647
H         48.86944       47.93873       13.50044
H         49.02237       49.55838       14.24608
H         47.98988       49.34686       12.78871
N         50.49015       49.50038        7.54835
C         50.32482       48.93923        6.20310
C         50.81565       49.88181        5.10085
O         50.08928       50.13012        4.14724
C         48.86131       48.47216        5.99409
C         47.90165       49.53414        6.41139
O         47.13538       49.32364        7.33939
O         48.01653       50.77715        5.92437
H         50.09280       50.43253        7.73017
H         50.94407       48.02414        6.08683
H         48.67686       47.58324        6.63802
H         48.68716       48.16337        4.94178
N         52.09647       50.34257        5.10867
C         52.73421       50.92502        3.93253
C         52.18865       52.22701        3.36887
O         52.67471       52.59998        2.31042
H         52.69373       50.13201        5.92276
H         52.66505       50.16719        3.12214
H         53.81353       51.08038        4.14668
N         51.23575       52.98975        3.97714
C         50.73661       54.23955        3.38775
C         51.21488       55.48321        4.13040
O         50.85639       56.57601        3.71046
C         49.20048       54.20451        3.22009
C         48.45160       53.77839        4.44781
O         47.64418       52.86844        4.37381
O         48.65969       54.37922        5.62809
H         50.87403       52.70010        4.89710
H         51.14182       54.38889        2.36324
H         48.94246       53.49427        2.40447
H         48.84494       55.20874        2.90179
N         52.08644       55.42070        5.17646
C         52.65597       56.60309        5.80495
C         51.66530       57.47218        6.54924
O         52.09870       58.49250        7.06661
H         52.43469       54.51065        5.49243
H         53.15994       57.21353        5.02433
H         53.42890       56.28467        6.53836
N         50.34540       57.14630        6.67457
C         49.39342       57.95221        7.42865
C         48.90045       57.17170        8.63049
O         49.15969       55.97816        8.72494
C         48.27800       58.50132        6.50245
C         47.40334       57.45310        5.78452
C         46.46860       56.73579        6.71925
N         45.51374       57.42551        7.38000
O         46.55090       55.52638        6.86669
H         50.00236       56.27545        6.26108
H         49.91439       58.84185        7.84432
H         48.78729       59.09330        5.71109
H         47.62905       59.20489        7.06578
H         48.04677       56.74621        5.22719
H         46.77139       57.96699        5.02889
H         45.40490       58.44122        7.25135
H         44.86975       56.93861        8.01030
N         48.28347       57.82257        9.65409
C         47.94680       57.18044       10.91873
C         46.47903       57.41176       11.22582
O         46.04320       58.55514       11.23841
C         48.86877       57.72683       12.04729
C         48.58719       57.02419       13.38778
C         50.35329       57.51571       11.69059
H         48.13231       58.84042        9.57218
H         48.14399       56.08864       10.87304
H         48.69457       58.81768       12.17481
H         48.76977       55.93220       13.30356
H         49.25144       57.42564       14.18245
H         47.54038       57.18857       13.71018
H         51.00678       57.89695       12.50404
H         50.57218       56.43739       11.53699
H         50.62225       58.06301       10.76355
N         45.67426       56.36266       11.55123
C         44.28006       56.49847       11.94724
C         44.16617       56.37811       13.45241
O         45.15772       56.14357       14.12882
C         43.43572       55.38341       11.28467
C         43.37616       55.50630        9.79048
N         43.89439       54.54175        8.99496
O         42.83105       56.47963        9.29192
H         46.09261       55.42874       11.62498
H         43.88405       57.50130       11.67373
H         42.38736       55.40356       11.64800
H         43.86406       54.39897       11.57339
H         44.35471       53.71433        9.40087
H         43.83999       54.62375        7.96884
N         42.95207       56.53402       14.04406
C         42.71912       56.37269       15.47238
C         43.11004       54.97696       15.91523
O         43.82496       54.85202       16.89861
C         41.23287       56.62604       15.78320
C         40.91835       56.39796       17.24085
C         41.51052       57.18688       18.24232
C         40.03413       55.37142       17.60677
C         41.21947       56.94790       19.58911
C         39.74668       55.13364       18.95107
C         40.33820       55.92167       19.94803
O         40.06773       55.70052       21.24970
H         42.14684       56.76115       13.44022
H         43.32427       57.11846       16.03551
H         40.62188       55.94273       15.15293
H         40.96422       57.66884       15.50663
H         42.19715       57.98334       17.98309
H         39.57295       54.74781       16.85092
H         41.68083       57.55949       20.35432
H         39.06592       54.33457       19.21445
H         39.46327       55.00049       21.53528
N         42.68452       53.88141       15.22577
C         43.07449       52.52377       15.58648
C         44.59036       52.38115       15.62350
O         45.11174       51.85152       16.59506
C         42.41762       51.46980       14.65067
C         42.85749       51.50651       13.17514
C         42.14531       50.45178       12.37551
O         40.80336       50.47542       12.26472
O         42.78048       49.57331       11.81321
H         42.08162       54.02592       14.40181
H         42.67806       52.30254       16.60308
H         41.31469       51.60653       14.70225
H         42.65111       50.45783       15.05046
H         43.94565       51.30847       13.10792
H         42.63771       52.49616       12.72472
N         45.35881       52.83885       14.59420
C         46.80394       52.62216       14.52398
C         47.57118       53.40844       15.57940
O         48.74550       53.12854       15.77805
C         47.36782       52.99949       13.13492
C         46.60807       52.32019       11.98804
C         47.15522       52.65798       10.64273
O         47.42538       51.66639        9.79410
O         47.23153       53.81111       10.25792
H         44.87645       53.31630       13.82254
H         46.97564       51.53265       14.67673
H         48.43775       52.70201       13.09020
H         47.30073       54.09822       13.00381
H         45.55722       52.65535       11.95929
H         46.61514       51.21869       12.12575
N         46.99873       54.44484       16.25154
C         47.71198       55.23430       17.22965
H         48.60304       55.70430       16.76216
H         47.05029       56.04083       17.61452
H         48.02382       54.59367       18.08035
H         46.03365       54.71426       16.04441
Ca        47.67994       52.14094        7.63271
O         44.71889       52.05480        7.21027
H         44.50839       51.59742        8.06292
H         45.18962       51.37077        6.67190

Ca 1.0



