%chk=holoCaM-CaMKII.loop1.water2.frame226.chk
%nprocshared=20
%mem=10GB
%nosave
#b3lyp/svp scf=(tight,noincore,xqc) Test 
#IOP(5/87=12) Density=Current Pop=(MK,readradii) iop(6/33=2) iop(6/42=6)

holoCaM-CaMKII.loop1.water2.frame226 

   0  1 
C         39.03311       33.40465       49.57762
C         38.09361       32.28149       49.85089
O         38.55442       31.18018       50.10507
H         40.06711       33.01700       49.45377
H         38.72469       33.92807       48.65117
H         39.01111       34.10648       50.43743
N         36.74868       32.49393       49.85619
C         35.81471       31.44191       50.20811
C         35.82459       30.30989       49.16564
O         35.20500       30.44318       48.12024
C         34.40362       32.03173       50.44294
C         33.53970       31.03799       51.13414
O         34.11474       30.24195       52.04550
O         32.33194       31.05848       51.00077
H         36.39626       33.44607       49.67557
H         36.18115       31.06781       51.18546
H         33.94802       32.37889       49.48991
H         34.47750       32.90425       51.12769
N         36.59595       29.20175       49.36714
C         36.79612       28.12141       48.40358
C         35.55982       27.27507       48.13894
O         35.48765       26.70571       47.05781
C         37.91274       27.16717       48.89729
C         39.32588       27.76661       49.12283
C         39.97495       28.33341       47.84706
C         39.65777       29.82068       47.61164
N         40.10354       30.24963       46.28959
H         37.15964       29.16737       50.21985
H         37.10999       28.54278       47.42749
H         38.02588       26.34143       48.15974
H         37.58084       26.70668       49.85343
H         39.94408       26.90174       49.44954
H         39.37003       28.50852       49.94774
H         39.68101       27.69718       46.98498
H         41.08140       28.27337       47.94596
H         40.18246       30.41632       48.39102
H         38.58184       30.04470       47.69679
H         39.91258       31.27228       46.18255
H         41.12665       30.07351       46.17049
H         39.56376       29.73076       45.55863
N         34.63868       27.01396       49.11144
C         33.54094       26.05403       48.93333
C         32.15264       26.67083       49.11705
O         31.17632       25.94722       48.97685
C         33.77285       24.80209       49.81750
C         33.81128       25.02567       51.30073
O         34.01065       24.08519       52.05015
O         33.68899       26.25051       51.81465
H         34.75743       27.47513       50.02370
H         33.54431       25.66203       47.89231
H         34.74911       24.35491       49.52486
H         32.97854       24.05629       49.60487
N         31.97841       28.00557       49.33361
C         30.67981       28.66451       49.34014
C         29.86849       28.41882       50.60117
O         29.40940       27.30974       50.82678
H         32.80333       28.61887       49.38816
H         30.09792       28.39604       48.43208
H         30.87423       29.75403       49.25713
N         29.64453       29.46433       51.45274
C         28.83121       29.44320       52.67269
C         28.80158       30.80058       53.42039
O         27.92225       30.94926       54.25735
C         29.19046       28.28174       53.63780
C         30.65732       28.11203       53.86158
O         31.39498       29.13221       54.30963
O         31.18923       27.03714       53.63185
H         30.05433       30.35255       51.16757
H         27.78077       29.27041       52.35491
H         28.81083       27.32324       53.22746
H         28.68198       28.43221       54.61430
N         29.69954       31.81802       53.21535
C         29.63143       33.11824       53.87562
C         30.74213       33.30205       54.88872
O         30.88857       34.39718       55.41178
H         30.51105       31.69555       52.60262
H         28.66485       33.27412       54.39781
H         29.72046       33.90106       53.09010
N         31.52710       32.25390       55.25371
C         32.60601       32.31284       56.22188
C         33.89004       31.77984       55.60854
O         33.85974       31.01710       54.65439
C         32.22939       31.51801       57.50612
C         31.29471       32.31397       58.42332
O         31.65942       30.26959       57.19942
H         31.33876       31.34091       54.84364
H         32.81078       33.36530       56.51378
H         33.14525       31.33609       58.10973
H         30.72471       30.41601       56.89033
H         31.05972       31.71307       59.32862
H         31.80364       33.24586       58.74883
H         30.34900       32.57509       57.90540
N         35.07459       32.16692       56.14814
C         36.38900       31.71689       55.71318
C         36.98996       30.96596       56.88425
O         37.09103       31.53816       57.96172
C         37.25992       32.95141       55.30140
C         36.71039       33.59230       53.99662
C         38.74587       32.56832       55.13119
C         37.39851       34.91055       53.61996
H         35.04560       32.81876       56.94775
H         36.32655       31.02814       54.83963
H         37.20469       33.69908       56.12402
H         35.63025       33.81704       54.12168
H         36.81670       32.87639       53.15057
H         39.37121       33.45689       54.91597
H         39.15193       32.15030       56.07390
H         38.87497       31.82609       54.31740
H         37.28076       35.65059       54.43984
H         38.47691       34.77262       53.40390
H         36.93312       35.32493       52.70078
N         37.44218       29.68746       56.73732
C         38.11831       28.97505       57.81783
C         39.60677       29.17321       57.69040
O         40.05244       29.75265       56.71584
C         37.79711       27.45456       57.81069
C         36.30938       27.15544       57.98426
O         38.30317       26.82883       56.65732
H         37.43722       29.27359       55.79555
H         37.80898       29.39977       58.79753
H         38.30644       26.98297       58.67640
H         37.66180       26.96901       55.91877
H         35.93180       27.60050       58.92716
H         35.74962       27.57180       57.12754
H         36.15328       26.05497       58.01525
N         40.44887       28.70759       58.64863
C         41.89913       28.76796       58.50424
C         42.35297       27.91262       57.33099
O         43.32500       28.26564       56.67865
C         42.61427       28.31004       59.79202
C         42.33485       29.27337       60.95306
O         42.20899       27.00740       60.13079
H         40.04042       28.27420       59.49013
H         42.20569       29.82145       58.31155
H         43.70973       28.32797       59.58601
H         42.87954       26.65121       60.76906
H         42.61764       30.30901       60.66491
H         41.26293       29.26336       61.24064
H         42.94159       28.98249       61.83555
N         41.68255       26.77107       57.00762
C         42.04062       25.90264       55.89068
C         41.99833       26.68945       54.58221
O         42.95819       26.66458       53.82604
C         41.09143       24.67198       55.89596
C         41.51550       23.56376       54.91617
C         40.68013       22.27095       55.05948
C         40.97982       21.48466       56.35523
N         40.18856       20.25409       56.42251
H         40.86851       26.50754       57.58440
H         43.06910       25.51518       56.05706
H         40.04166       24.97897       55.68757
H         41.12466       24.25209       56.92146
H         42.58590       23.30514       55.06877
H         41.39472       23.95636       53.88448
H         40.94031       21.60433       54.20883
H         39.59711       22.51202       54.99098
H         40.75912       22.09369       57.25597
H         42.06080       21.21822       56.37430
H         39.16995       20.48585       56.47150
H         40.37415       19.65275       55.58714
H         40.45278       19.72061       57.28302
N         40.91165       27.45131       54.29173
C         40.74121       28.26369       53.08566
C         41.76795       29.38811       53.00695
O         42.44364       29.50188       51.99361
C         39.30676       28.83653       53.06559
C         38.27349       27.69210       52.99069
C         36.87700       28.19775       53.15468
O         36.12372       27.79974       54.19013
O         36.41040       28.97995       52.35918
H         40.15738       27.45604       54.99167
H         40.84448       27.62413       52.18033
H         39.16688       29.50554       52.18789
H         39.14230       29.43836       53.98515
H         38.44393       26.95147       53.79091
H         38.37881       27.15280       52.02723
N         41.94279       30.25568       54.04056
C         42.88405       31.35507       54.00274
H         43.90649       30.98289       53.78204
H         42.57690       32.09260       53.23142
H         42.90338       31.86798       54.98970
H         41.40200       30.12468       54.89695
Ca        33.50084       28.24446       52.72355
O         33.45908       27.80610       56.11099
H         33.48527       27.42326       57.02175
H         32.73780       28.46944       56.16445
O         34.75175       25.67104       55.02579
H         34.44354       24.84738       55.47496
H         34.83687       25.42851       54.07167

Ca 1.0



