%chk=holoCaM.loop3.water3.frame235.chk
%nprocshared=20
%mem=10GB
%nosave
#b3lyp/svp scf=(tight,noincore,xqc) Test 
#IOP(5/87=12) Density=Current Pop=(MK,readradii) iop(6/33=2) iop(6/42=6)

holoCaM.loop3.water3.frame235 

   0  1 
C         39.79022       70.77952       42.37886
C         38.73659       71.68998       42.92355
O         37.56351       71.39032       42.75497
H         40.80810       71.15389       42.61394
H         39.66633       69.77073       42.82445
H         39.67909       70.71206       41.27632
N         39.07876       72.83865       43.57178
C         38.09328       73.76256       44.10225
C         38.15880       75.02875       43.27255
O         39.05352       75.84304       43.45355
C         38.34830       73.96291       45.60266
C         37.29113       74.75121       46.30331
O         36.32937       75.20870       45.70989
O         37.39719       74.91793       47.62692
H         40.07612       73.08566       43.66873
H         37.07326       73.32847       44.00037
H         39.33559       74.44827       45.76382
H         38.36942       72.96317       46.08854
N         37.32341       75.14134       42.20337
C         37.43537       76.18009       41.18310
C         37.01258       77.56209       41.66008
O         37.27237       78.52687       40.95497
C         36.62647       75.76982       39.92564
C         37.04686       74.40359       39.32723
C         38.53569       74.36728       38.95705
C         38.94122       73.04068       38.31232
N         40.37118       73.04761       38.00173
H         36.66267       74.37060       42.05096
H         38.50500       76.26609       40.90618
H         36.75034       76.54788       39.14258
H         35.54487       75.71508       40.18540
H         36.43216       74.22117       38.41938
H         36.83256       73.57319       40.03318
H         39.15209       74.48474       39.87186
H         38.75527       75.20041       38.25527
H         38.35818       72.88653       37.37803
H         38.72197       72.20168       39.01079
H         40.63156       72.14409       37.54632
H         40.59332       73.83474       37.34924
H         40.92849       73.15650       38.88093
N         36.33641       77.73146       42.82498
C         35.95061       79.03199       43.37748
C         36.40477       79.17136       44.84507
O         36.11291       80.19702       45.44432
C         34.42667       79.30035       43.18409
C         33.54017       78.28476       43.83137
O         34.12108       77.21476       44.37624
O         32.33208       78.44478       43.88950
H         36.07632       76.88190       43.33638
H         36.44713       79.85284       42.81545
H         34.18111       79.34143       42.10099
H         34.19695       80.29735       43.62105
N         37.18399       78.22723       45.46497
C         37.77661       78.41190       46.78468
C         36.84823       78.26660       47.98178
O         37.31417       78.55929       49.07468
H         37.50200       77.40442       44.94044
H         38.25935       79.41360       46.80744
H         38.58767       77.66375       46.92555
N         35.55487       77.82878       47.89419
C         34.64673       77.81016       49.05262
C         34.89145       76.69227       50.08081
O         34.04959       76.51352       50.94788
C         33.15924       77.94028       48.60256
C         32.25077       76.70820       48.34877
N         31.31077       76.46426       49.43239
O         32.88478       75.51751       48.01549
H         35.17504       77.62437       46.96104
H         34.80692       78.78156       49.57418
H         33.12904       78.59323       47.70331
H         32.62970       78.53778       49.37663
H         30.66640       77.28300       49.49489
H         30.72129       75.64272       49.16301
N         36.03174       75.93736       50.09012
C         36.29161       74.85277       51.03195
C         35.58431       73.54940       50.68704
O         35.74180       72.59721       51.43993
H         36.79430       76.17676       49.45608
H         36.04005       75.18563       52.06265
H         37.37873       74.62076       51.01542
N         34.79775       73.42017       49.58204
C         34.05578       72.21225       49.22733
C         34.31064       71.82004       47.78459
O         34.26049       72.67335       46.90603
C         32.55446       72.47068       49.43652
C         32.25831       72.57676       50.90992
C         32.14434       73.82398       51.53704
C         32.12480       71.40846       51.67662
C         31.90508       73.90679       52.91085
C         31.87240       71.48930       53.04781
C         31.76545       72.74104       53.67101
O         31.53302       72.83466       54.99524
H         34.67105       74.23654       48.97254
H         34.32453       71.35068       49.87939
H         31.93741       71.64504       49.01779
H         32.24982       73.38633       48.89856
H         32.26193       74.72798       50.96786
H         32.21127       70.43554       51.20827
H         31.83292       74.87785       53.38430
H         31.76526       70.57910       53.62351
H         31.43235       72.05155       55.55488
N         34.47366       70.50623       47.46290
C         34.60224       70.00475       46.10045
C         33.29002       69.32959       45.74121
O         32.85773       68.45246       46.48105
C         35.77434       68.98305       45.98987
C         37.10260       69.55833       46.54248
C         35.93979       68.53000       44.52089
C         38.19797       68.49305       46.67124
H         34.41467       69.80564       48.22011
H         34.79940       70.84080       45.39166
H         35.50991       68.10046       46.61482
H         36.93533       69.94566       47.56963
H         37.45741       70.39987       45.90855
H         36.21708       69.39391       43.88012
H         36.71528       67.74724       44.41416
H         34.99934       68.09495       44.12624
H         37.84814       67.66685       47.32872
H         38.49043       68.07358       45.68874
H         39.10320       68.94159       47.13023
N         32.61629       69.66075       44.60542
C         31.36271       69.03317       44.20532
C         31.58784       68.12266       43.01903
O         32.69616       68.07293       42.50637
C         30.30718       70.11054       43.89289
O         30.70269       70.90714       42.80574
H         33.03987       70.34447       43.96418
H         30.97338       68.39353       45.02689
H         30.11903       70.73716       44.79363
H         29.33498       69.64074       43.63771
H         31.14843       71.71174       43.17777
N         30.58605       67.32671       42.55777
C         30.73895       66.42318       41.42205
C         30.95247       67.19265       40.13167
O         31.75847       66.76686       39.31792
C         29.51858       65.51269       41.28885
H         29.68019       67.34809       43.05425
H         31.60649       65.74720       41.60139
H         29.67109       64.79747       40.45157
H         29.39606       64.92324       42.22374
H         28.59613       66.10148       41.10624
N         30.28136       68.35806       39.89552
C         30.50356       69.18230       38.71012
C         31.96243       69.58766       38.61669
O         32.58766       69.33916       37.59474
C         29.62005       70.43653       38.76129
H         29.61350       68.69126       40.60757
H         30.21728       68.60836       37.80074
H         29.85425       71.05640       39.65348
H         29.77622       71.05171       37.84905
H         28.54924       70.14474       38.80550
N         32.57737       70.18081       39.67782
C         33.99081       70.55434       39.69366
C         34.87952       69.34389       39.43076
O         35.89281       69.49032       38.76192
C         34.36645       71.23481       41.03478
C         33.59885       72.56208       41.22229
C         33.92180       73.25877       42.51545
O         33.69561       72.65634       43.69517
O         34.32642       74.40858       42.50508
H         32.01300       70.33758       40.52540
H         34.18099       71.29443       38.88432
H         35.45513       71.45830       41.03874
H         34.15142       70.53812       41.87416
H         32.50701       72.38170       41.21364
H         33.84115       73.23958       40.37406
N         34.52581       68.10402       39.86635
C         35.29364       66.91463       39.57206
H         36.30889       66.99514       40.01096
H         34.78585       66.02377       40.00333
H         35.36578       66.77338       38.47244
H         33.66122       67.98827       40.39906
Ca        33.61193       75.83349       45.97371
O         31.33232       75.01875       43.12602
H         30.94813       74.40306       42.45254
H         31.04222       75.91928       42.83452
O         31.22419       73.32133       46.12696
H         30.88471       72.41848       46.34730
H         30.85337       73.90064       46.83873
O         30.32481       76.32179       45.76302
H         31.12044       76.78928       45.40845
H         29.74953       77.04711       46.11159

Ca 1.0



