%chk=holoCaM.loop1.water2.frame165.chk
%nprocshared=20
%mem=10GB
%nosave
#b3lyp/svp scf=(tight,noincore,xqc) Test 
#IOP(5/87=12) Density=Current Pop=(MK,readradii) iop(6/33=2) iop(6/42=6)

holoCaM.loop1.water2.frame165 

   0  1 
C         99.60645       57.35009      -10.29018
C        100.73556       56.37114      -10.24517
O        101.14707       55.89573      -11.29388
H         98.75858       56.96399       -9.68653
H         99.94387       58.32335       -9.87995
H         99.26092       57.49677      -11.33638
N        101.26535       55.99205       -9.04751
C        102.33188       55.01137       -8.93861
C        101.72582       53.72641       -8.39686
O        101.36834       53.65485       -7.22969
C        103.48502       55.59106       -8.09769
C        104.70619       54.72399       -8.01474
O        104.76091       53.63499       -8.56234
O        105.77389       55.18252       -7.34227
H        100.85901       56.37454       -8.17940
H        102.74482       54.80563       -9.94893
H        103.12811       55.80663       -7.06743
H        103.80431       56.55074       -8.56118
N        101.46381       52.71163       -9.26899
C        100.72252       51.49422       -8.94756
C        101.41027       50.58023       -7.94365
O        100.74739       49.68868       -7.43255
C        100.43854       50.70596      -10.25957
C        101.72329       50.13180      -10.90698
C        101.47311       49.58683      -12.32037
C        102.76833       49.14577      -13.03346
N        103.43192       48.02986      -12.35891
H        101.69805       52.87649      -10.25348
H         99.75041       51.82228       -8.51780
H         99.95043       51.41034      -10.97057
H         99.72940       49.87232      -10.07129
H        102.13951       49.33888      -10.25301
H        102.48206       50.92056      -10.99584
H        101.02664       50.39784      -12.93612
H        100.75187       48.74392      -12.28229
H        103.47420       50.00260      -13.11182
H        102.50470       48.83419      -14.06842
H        104.24679       47.72124      -12.93727
H        103.79215       48.32616      -11.42469
H        102.76993       47.22784      -12.25291
N        102.75052       50.65991       -7.70861
C        103.48306       49.70132       -6.87620
C        104.36281       50.36083       -5.81741
O        104.99033       49.63380       -5.05920
C        104.27940       48.72720       -7.77749
C        105.25236       49.35913       -8.73747
O        105.84283       48.65381       -9.53915
O        105.42512       50.69078       -8.78179
H        103.28020       51.37096       -8.22554
H        102.76701       49.06104       -6.31494
H        103.53787       48.17201       -8.39403
H        104.81263       47.98260       -7.14784
N        104.42893       51.71313       -5.66067
C        105.17898       52.35470       -4.59329
C        106.67458       52.17741       -4.71395
O        107.30002       51.70831       -3.77402
H        103.88058       52.32981       -6.27487
H        104.81781       51.98350       -3.60926
H        104.98194       53.44805       -4.63337
N        107.31656       52.60033       -5.83522
C        108.76852       52.65166       -5.98603
C        109.23137       54.09018       -6.24434
O        110.37617       54.28746       -6.62801
C        109.23713       51.65493       -7.07090
C        108.72233       51.88314       -8.46281
O        107.90433       52.90813       -8.75192
O        109.05459       51.11576       -9.35110
H        106.73859       52.95282       -6.60930
H        109.27989       52.31645       -5.05668
H        108.92526       50.63523       -6.75635
H        110.34850       51.67007       -7.11205
N        108.41009       55.15257       -5.97933
C        108.78732       56.54700       -6.15341
C        108.84736       57.02010       -7.59451
O        109.14641       58.19227       -7.78033
H        107.49157       54.98520       -5.54802
H        109.75871       56.73256       -5.64428
H        108.02281       57.18057       -5.65357
N        108.60107       56.20217       -8.66111
C        108.72658       56.64300      -10.05021
C        107.50855       56.29043      -10.90431
O        106.62428       55.56692      -10.46519
C        110.00643       56.02665      -10.67103
C        111.28472       56.54568       -9.99798
O        109.96372       54.62230      -10.63130
H        108.38203       55.21700       -8.49010
H        108.82795       57.74998      -10.09089
H        110.07884       56.33148      -11.73655
H        110.15580       54.32575       -9.70348
H        111.30990       56.27444       -8.92152
H        112.17282       56.10100      -10.49444
H        111.34141       57.65059      -10.09258
N        107.42387       56.80541      -12.16628
C        106.37606       56.52996      -13.14603
C        107.02471       55.97513      -14.41739
O        107.99979       56.52853      -14.90709
C        105.53293       57.82411      -13.41488
C        104.61175       58.08649      -12.18684
C        104.68600       57.71050      -14.70029
C        103.70633       59.31661      -12.30754
H        108.16437       57.45960      -12.46471
H        105.66119       55.76173      -12.77189
H        106.22314       58.68197      -13.57155
H        105.24050       58.21278      -11.28074
H        103.94911       57.20524      -12.02601
H        104.14387       58.65284      -14.91275
H        105.33672       57.55386      -15.58270
H        103.95424       56.88591      -14.62538
H        104.31140       60.23291      -12.46252
H        102.97543       59.20632      -13.13562
H        103.11243       59.42756      -11.37541
N        106.43770       54.92318      -15.05034
C        106.85471       54.31959      -16.30857
C        105.93630       54.79821      -17.42457
O        105.04840       55.60274      -17.17766
C        106.79951       52.76642      -16.19214
C        107.79142       52.25160      -15.14130
O        105.47672       52.37086      -15.89772
H        105.56500       54.58250      -14.66060
H        107.88507       54.64072      -16.57642
H        107.09461       52.30303      -17.15596
H        105.48694       51.49673      -15.42740
H        107.76835       51.14052      -15.10403
H        108.82471       52.56588      -15.39887
H        107.51469       52.64201      -14.14680
N        106.10763       54.34765      -18.69617
C        105.30582       54.79813      -19.83046
C        103.82517       54.54184      -19.59035
O        103.03051       55.45981      -19.72529
C        105.77522       54.08383      -21.12439
C        105.07265       54.63363      -22.36851
O        107.16035       54.26839      -21.28148
H        106.85857       53.66293      -18.86934
H        105.47100       55.89105      -19.96608
H        105.54311       52.99492      -21.02776
H        107.53319       53.41542      -21.62852
H        105.43571       54.09610      -23.26962
H        103.97325       54.49950      -22.30116
H        105.30082       55.71522      -22.48540
N        103.39375       53.29624      -19.25764
C        101.99117       52.94135      -19.05246
C        101.40825       53.64423      -17.83287
O        100.35402       54.25191      -17.96476
C        101.83504       51.40327      -18.97402
C        102.36151       50.67820      -20.24457
C        101.61123       51.04957      -21.54012
C        102.27311       50.41169      -22.77010
N        101.54212       50.74870      -23.99258
H        104.10935       52.56143      -19.16353
H        101.39585       53.26970      -19.92741
H        100.76235       51.14462      -18.83410
H        102.39802       51.02559      -18.09261
H        102.27211       49.58110      -20.09136
H        103.43965       50.89674      -20.38141
H        101.63269       52.14297      -21.71317
H        100.55312       50.71915      -21.45574
H        102.31215       49.30671      -22.65648
H        103.31612       50.79411      -22.85573
H        102.04510       50.34544      -24.81585
H        100.57769       50.34630      -23.95401
H        101.48580       51.78691      -24.11026
N        102.06301       53.66621      -16.63193
C        101.56192       54.40630      -15.46338
C        101.36017       55.89699      -15.75160
O        100.70761       56.55400      -14.95190
C        102.56250       54.32153      -14.29030
C        102.73381       52.93788      -13.65331
C        103.90474       52.94073      -12.69658
O        105.04410       52.98579      -13.11698
O        103.72246       52.87629      -11.37304
H        102.96415       53.17016      -16.56460
H        100.57641       53.98065      -15.17133
H        102.26783       55.01570      -13.47332
H        103.51448       54.67541      -14.69925
H        102.90962       52.14734      -14.41172
H        101.79351       52.70597      -13.10966
N        101.91893       56.50636      -16.83520
C        101.75509       57.90961      -17.15285
H        101.10129       58.43698      -16.42824
H        102.74987       58.40229      -17.15938
H        101.30678       58.00285      -18.16466
H        102.51439       55.96506      -17.46502
Ca       106.29849       51.63974      -10.61982
O        108.62903       52.54580      -11.88361
H        109.19329       51.76880      -12.12128
H        108.93692       53.27312      -12.47923
O        106.61097       49.43346      -12.50733
H        107.53368       49.78445      -12.43086
H        106.14574       50.08413      -13.09101

Ca 1.0



