%chk=holoCaM-CaMKII.loop3.water2.frame178.chk
%nprocshared=20
%mem=10GB
%nosave
#b3lyp/svp scf=(tight,noincore,xqc) Test 
#IOP(5/87=12) Density=Current Pop=(MK,readradii) iop(6/33=2) iop(6/42=6)

holoCaM-CaMKII.loop3.water2.frame178 

   0  1 
C         83.38144       57.63009       19.62869
C         82.43650       56.53370       20.01794
O         81.64164       56.73378       20.92079
H         84.42696       57.27093       19.73073
H         83.19550       57.92174       18.57369
H         83.24378       58.52127       20.27764
N         82.45704       55.35469       19.33444
C         81.58567       54.20625       19.58904
C         82.01511       53.43563       20.83717
O         82.55626       52.34379       20.72699
C         81.57328       53.32427       18.31720
C         80.67229       52.11958       18.36832
O         81.15259       51.01905       18.15915
O         79.33853       52.23133       18.54763
H         83.10314       55.30134       18.53086
H         80.55960       54.56743       19.73199
H         82.61094       52.99099       18.09536
H         81.23046       53.94328       17.46497
N         81.78254       53.95494       22.07279
C         82.16942       53.31131       23.32298
C         81.35747       52.04925       23.53126
O         81.94410       50.98983       23.70429
C         81.97005       54.28477       24.50908
C         82.86431       55.53187       24.35610
C         82.61764       56.55475       25.47024
C         83.49141       57.81635       25.32609
N         83.22136       58.55408       24.08745
H         81.28417       54.84733       22.13397
H         83.25482       53.06201       23.29459
H         82.23495       53.77252       25.46069
H         80.90346       54.59461       24.56323
H         82.64333       56.01822       23.38965
H         83.93329       55.22489       24.35822
H         82.84392       56.08123       26.45025
H         81.54722       56.85604       25.46684
H         84.56839       57.54132       25.36915
H         83.27317       58.48131       26.19063
H         83.75761       59.45128       24.10262
H         83.53758       58.01307       23.25169
H         82.20173       58.77311       24.00797
N         79.99119       52.09106       23.51142
C         79.15038       50.91295       23.73133
C         79.39050       49.78700       22.73100
O         78.91882       48.68571       22.97944
C         77.64877       51.28106       23.74748
C         77.14275       51.78445       22.41624
O         77.63120       52.91685       21.87653
O         76.26601       51.17353       21.82750
H         79.54300       53.00705       23.36912
H         79.41680       50.52060       24.73805
H         77.46203       52.05568       24.52118
H         77.06759       50.37568       24.03234
N         80.11400       49.97211       21.59269
C         80.44977       48.89284       20.68699
C         79.24100       48.25950       20.04801
O         79.09133       47.05086       20.15859
H         80.47667       50.90537       21.35938
H         81.04775       48.12898       21.23028
H         81.09273       49.28882       19.87775
N         78.36928       49.00717       19.31139
C         77.28609       48.41935       18.52543
C         77.51979       48.59016       17.02397
O         76.79318       47.97044       16.26012
C         75.89692       48.94306       18.96859
C         75.63896       50.42236       18.77557
N         74.42536       50.93724       19.07965
O         76.50794       51.16218       18.34727
H         78.52065       50.02224       19.27202
H         77.27151       47.32048       18.69356
H         75.75218       48.70530       20.04481
H         75.12364       48.39020       18.39204
H         73.67242       50.33397       19.44114
H         74.23435       51.94140       18.94532
N         78.50999       49.39221       16.52391
C         78.82805       49.51331       15.10910
C         78.47658       50.87111       14.52933
O         78.76809       51.08315       13.36098
H         79.08725       49.95205       17.15876
H         78.28063       48.75637       14.50700
H         79.91408       49.31495       14.98401
N         77.76081       51.79422       15.23696
C         77.20021       53.00559       14.64748
C         77.43113       54.20221       15.53941
O         77.14860       54.09036       16.72280
C         75.66614       52.87060       14.51776
C         75.22382       51.65699       13.74375
C         75.27789       50.38331       14.33562
C         74.72059       51.78685       12.44093
C         74.84628       49.25773       13.63377
C         74.29364       50.65774       11.73655
C         74.35438       49.38884       12.33242
O         73.93847       48.29269       11.66822
H         77.48148       51.57444       16.19843
H         77.59542       53.18524       13.62268
H         75.30708       53.79349       14.00838
H         75.17015       52.83191       15.51202
H         75.63885       50.26203       15.34794
H         74.66502       52.75953       11.96813
H         74.88918       48.28431       14.10576
H         73.91302       50.77154       10.73005
H         73.58568       48.34098       10.76868
N         77.78738       55.41775       15.02946
C         77.78497       56.62876       15.85357
C         76.66169       57.56509       15.42975
O         76.10089       57.41494       14.35257
C         79.17165       57.33297       15.88891
C         79.62284       57.80463       14.48101
C         80.20114       56.39631       16.54006
C         80.94791       58.57094       14.48479
H         77.96629       55.50054       14.01754
H         77.53781       56.35954       16.90389
H         79.08157       58.22872       16.54408
H         78.84873       58.48555       14.06649
H         79.72956       56.93826       13.79506
H         79.84652       56.08321       17.54492
H         80.35581       55.49449       15.91159
H         81.17443       56.90382       16.69252
H         81.78822       57.92223       14.80589
H         81.17503       58.91803       13.45467
H         80.88452       59.45494       15.15364
N         76.23387       58.51411       16.30661
C         75.12972       59.43972       16.07838
C         75.60849       60.87132       16.27946
O         76.78915       61.07491       16.51020
C         73.99281       59.09058       17.05820
O         74.42548       59.22588       18.38451
H         76.69050       58.55201       17.22667
H         74.72574       59.33898       15.04720
H         73.68056       58.03799       16.86930
H         73.11557       59.75050       16.88540
H         73.69100       58.87555       18.95265
N         74.74356       61.92204       16.22162
C         75.15182       63.30104       16.48389
C         75.68412       63.45948       17.90083
O         76.78835       63.95715       18.06913
C         73.96834       64.25383       16.28270
H         73.75467       61.73424       15.99719
H         75.93871       63.59857       15.75451
H         73.13725       64.01298       16.97929
H         74.29141       65.30258       16.45983
H         73.59420       64.17602       15.24006
N         74.94204       63.04495       18.96752
C         75.35370       63.19590       20.36252
C         76.71013       62.57592       20.62488
O         77.57645       63.24870       21.16634
C         74.31520       62.54677       21.28786
H         74.03529       62.59222       18.77273
H         75.40159       64.27821       20.61667
H         74.61224       62.67657       22.35094
H         73.32302       63.02348       21.14176
H         74.22073       61.45938       21.07573
N         76.96450       61.29475       20.24969
C         78.23923       60.62232       20.48547
C         79.38198       61.40917       19.86775
O         80.31226       61.76242       20.57928
C         78.20224       59.19309       19.91284
C         77.15821       58.31268       20.62705
C         77.12029       56.94504       20.02381
O         76.07991       56.48811       19.57893
O         78.25124       56.22814       19.95414
H         76.21472       60.79094       19.75406
H         78.42078       60.54390       21.58116
H         79.20305       58.72330       20.04151
H         77.99023       59.24465       18.82822
H         76.14094       58.75152       20.57118
H         77.43727       58.22168       21.69820
N         79.35980       61.75102       18.55328
C         80.40249       62.53732       17.93382
H         81.36757       61.99140       17.97847
H         80.14659       62.72956       16.86959
H         80.49904       63.51471       18.45347
H         78.56183       61.46685       17.97845
Ca        78.31703       54.12064       19.20269
O         74.75703       54.04208       20.95824
H         74.07103       53.36863       21.19513
H         74.42738       54.88428       21.36130
O         74.41754       54.52354       17.66209
H         73.79461       54.28855       16.92964
H         74.69183       55.45375       17.46311

Ca 1.0



