%chk=holoCaM-CaMKII.loop1.water2.frame21.chk
%nprocshared=20
%mem=10GB
%nosave
#b3lyp/svp scf=(tight,noincore,xqc) Test 
#IOP(5/87=12) Density=Current Pop=(MK,readradii) iop(6/33=2) iop(6/42=6)

holoCaM-CaMKII.loop1.water2.frame21 

   0  1 
C         31.95447       45.53073       15.87954
C         32.50980       45.17493       14.53549
O         31.82512       45.37408       13.54169
H         31.02347       44.95658       16.06135
H         32.68034       45.30639       16.68943
H         31.72919       46.61799       15.90138
N         33.76896       44.67257       14.42008
C         34.37175       44.39841       13.12751
C         33.66450       43.23244       12.43764
O         33.54460       42.18578       13.06008
C         35.87806       44.09699       13.28657
C         36.58132       44.21890       11.96768
O         37.77477       43.98975       11.88764
O         35.90382       44.66550       10.89222
H         34.33506       44.54470       15.27384
H         34.29167       45.33566       12.54116
H         36.02628       43.08728       13.72913
H         36.35167       44.84567       13.95786
N         33.20262       43.32262       11.15096
C         32.46614       42.24360       10.49067
C         33.31316       41.51035        9.44280
O         32.80961       40.55286        8.87498
C         31.16702       42.83164        9.86355
C         30.11331       41.75608        9.51162
C         28.82532       42.31144        8.87775
C         29.02268       42.78038        7.42512
N         27.74691       43.18108        6.82831
H         33.37753       44.18223       10.61396
H         32.17364       41.48881       11.25234
H         31.44163       43.44402        8.97704
H         30.68664       43.50696       10.60601
H         29.83405       41.25634       10.46448
H         30.50651       40.98276        8.82648
H         28.40483       43.12824        9.50383
H         28.08703       41.47998        8.85572
H         29.44506       41.94144        6.82700
H         29.73340       43.63263        7.38203
H         27.07206       42.38127        6.84637
H         27.34316       43.99276        7.34909
H         27.90378       43.45900        5.83236
N         34.59737       41.87222        9.13179
C         35.37507       41.20173        8.08240
C         36.66142       40.56439        8.60562
O         37.37034       39.96088        7.81150
C         35.72705       42.21199        6.97605
C         34.52498       42.97307        6.49096
O         34.46990       44.31013        6.64602
O         33.59236       42.38772        5.96592
H         35.03245       42.66863        9.61405
H         34.77491       40.39167        7.61478
H         36.20846       41.69489        6.11893
H         36.46231       42.92535        7.37307
N         37.03639       40.64756        9.91389
C         38.25710       40.05486       10.43807
C         39.51293       40.68101        9.86376
O         40.37140       39.95655        9.38149
H         36.43331       41.13442       10.59171
H         38.25049       38.95477       10.26946
H         38.28165       40.22537       11.53616
N         39.69156       42.03102        9.91321
C         40.91455       42.72502        9.50691
C         41.48078       43.58739       10.65341
O         42.45312       44.29143       10.41940
C         40.66960       43.54652        8.21182
C         39.54787       44.52103        8.33850
O         39.55767       45.35017        9.22259
O         38.47722       44.45792        7.53868
H         38.91213       42.60201       10.26412
H         41.71111       41.99713        9.23961
H         40.42483       42.84680        7.38365
H         41.59681       44.09200        7.93662
N         40.97374       43.54423       11.92621
C         41.54133       44.28159       13.05447
C         41.20511       45.76614       13.10757
O         41.61714       46.40554       14.06583
H         40.21521       42.88512       12.14843
H         42.64172       44.12555       13.08701
H         41.12153       43.85133       13.98992
N         40.45360       46.38181       12.15394
C         40.03162       47.78263       12.20428
C         38.51411       47.89894       12.11196
O         37.84376       46.93297       11.77568
C         40.71407       48.60348       11.07480
C         42.15789       48.94154       11.43109
O         40.72688       47.89731        9.86225
H         40.14233       45.82562       11.35917
H         40.30235       48.23313       13.18498
H         40.20389       49.58522       10.94012
H         39.79557       47.83931        9.54862
H         42.18073       49.56896       12.34769
H         42.75398       48.02081       11.59696
H         42.61522       49.52489       10.60253
N         37.90427       49.06539       12.47730
C         36.45632       49.27244       12.49550
C         36.14426       50.55286       11.72795
O         36.55601       51.61612       12.17564
C         35.97622       49.37259       13.98204
C         36.28121       48.05211       14.74233
C         34.47449       49.71263       14.08030
C         36.09700       48.15889       16.25842
H         38.49922       49.83469       12.82458
H         35.93070       48.41540       12.01660
H         36.55046       50.19596       14.46358
H         37.34250       47.76682       14.59283
H         35.64538       47.23197       14.34228
H         33.85972       48.90950       13.62445
H         34.15887       49.84812       15.13371
H         34.25125       50.67065       13.57284
H         36.36528       47.18974       16.73001
H         36.77186       48.94267       16.66545
H         35.05190       48.39172       16.54008
N         35.44041       50.53614       10.55662
C         35.12015       51.76581        9.82483
C         34.07825       52.59101       10.57573
O         33.54794       52.14191       11.58112
C         34.61389       51.48056        8.37971
C         35.66802       50.80416        7.50615
O         33.46181       50.68732        8.41543
H         35.16086       49.62632       10.16491
H         36.05013       52.36993        9.72946
H         34.37934       52.45433        7.89469
H         33.02791       50.76445        7.52608
H         36.59689       51.41175        7.47285
H         35.88500       49.79514        7.88755
H         35.28202       50.69346        6.47049
N         33.73108       53.82546       10.11381
C         32.69803       54.66262       10.72197
C         31.34697       53.95875       10.63808
O         30.63464       53.91004       11.62952
C         32.64625       56.04284       10.02147
C         31.71996       57.01474       10.75828
O         33.93339       56.61177       10.00796
H         34.22445       54.18333        9.28310
H         32.96938       54.85015       11.78622
H         32.26478       55.91500        8.97915
H         34.26800       56.57627        9.07334
H         32.08687       57.17591       11.79623
H         31.71420       57.99486       10.23628
H         30.68080       56.62980       10.79966
N         30.97480       53.33236        9.48337
C         29.77010       52.51171        9.32989
C         29.73461       51.39968       10.36857
O         28.74776       51.27961       11.08096
C         29.76300       51.84564        7.92790
C         29.55011       52.81003        6.74942
C         28.08129       53.23974        6.62118
C         27.86356       54.10641        5.37403
N         26.44239       54.39504        5.18234
H         31.62717       53.38987        8.68642
H         28.85801       53.13374        9.45486
H         28.98026       51.05676        7.86836
H         30.73929       51.33630        7.78804
H         29.80576       52.25412        5.82041
H         30.22980       53.68617        6.81948
H         27.74992       53.79677        7.52223
H         27.45977       52.32202        6.52102
H         28.24163       53.57007        4.47476
H         28.43040       55.05777        5.47959
H         26.32511       54.99282        4.33269
H         25.91474       53.50279        5.03765
H         26.05820       54.90014        6.01317
N         30.78127       50.53697       10.49012
C         30.80181       49.39321       11.40196
C         30.68958       49.79889       12.86483
O         30.43640       48.92970       13.68821
C         32.10430       48.59175       11.19694
C         32.16760       47.93528        9.80684
C         33.53973       47.39765        9.54066
O         34.16592       47.75917        8.55799
O         34.10018       46.53591       10.39751
H         31.59199       50.69930        9.88427
H         29.92719       48.74649       11.16498
H         32.19880       47.78570       11.95866
H         32.95577       49.29473       11.33273
H         31.92168       48.65634        9.00185
H         31.42399       47.11086        9.76532
N         30.87012       51.08372       13.27271
C         30.70481       51.49353       14.64801
H         29.65448       51.31841       14.96482
H         31.39641       50.92594       15.30443
H         30.92498       52.57845       14.74442
H         31.14436       51.79960       12.59494
Ca        36.71428       44.81495        8.83604
O         37.63238       48.60481        8.98219
H         38.13033       48.83039        8.15581
H         37.76362       49.39461        9.56406
O         36.39747       47.20803        6.42500
H         35.53309       46.77709        6.20919
H         36.36262       48.07825        5.95419

Ca 1.0



