%chk=holoCaM-CaMKII.loop3.water2.frame482.chk
%nprocshared=20
%mem=10GB
%nosave
#b3lyp/svp scf=(tight,noincore,xqc) Test 
#IOP(5/87=12) Density=Current Pop=(MK,readradii) iop(6/33=2) iop(6/42=6)

holoCaM-CaMKII.loop3.water2.frame482 

   0  1 
C         72.79749       79.76165       60.23774
C         73.57231       79.86115       58.95891
O         74.79382       79.83347       59.00896
H         71.70325       79.77025       60.04952
H         73.05809       78.80995       60.74695
H         73.05420       80.61425       60.89934
N         72.92283       79.97162       57.76654
C         73.60581       80.00871       56.48415
C         73.32551       81.33333       55.79623
O         72.17148       81.71587       55.66028
C         73.14901       78.80865       55.63934
C         73.96524       78.62590       54.38713
O         74.95828       79.47839       54.07756
O         73.73514       77.68368       53.64815
H         71.89145       80.00773       57.76079
H         74.70331       79.89398       56.63018
H         72.07276       78.91079       55.38974
H         73.27290       77.88741       56.24279
N         74.36447       82.07764       55.32748
C         74.24148       83.39605       54.71184
C         73.22271       83.39273       53.57465
O         72.32538       84.22339       53.61473
C         75.65775       83.87908       54.30818
C         75.77528       85.37639       53.97482
C         77.26573       85.76000       53.86306
C         77.47927       87.26655       53.66318
N         78.90882       87.58720       53.63525
H         75.31172       81.68088       55.42817
H         73.87586       84.09919       55.49462
H         76.06698       83.25585       53.48302
H         76.30009       83.72426       55.20491
H         75.33088       85.96345       54.80874
H         75.22986       85.61649       53.03695
H         77.73522       85.20071       53.02479
H         77.77992       85.47342       54.80806
H         77.00411       87.82226       54.50250
H         77.00609       87.59166       52.71128
H         79.37663       87.09080       52.84248
H         79.03101       88.61801       53.50962
H         79.35998       87.30650       54.53710
N         73.23940       82.44753       52.58397
C         72.21271       82.37996       51.53260
C         71.34343       81.12226       51.59083
O         70.40699       81.03663       50.80733
C         72.85613       82.53081       50.13863
C         73.78662       81.41383       49.73171
O         74.01867       80.35650       50.53325
O         74.32936       81.46227       48.64029
H         73.98890       81.74113       52.60001
H         71.50401       83.22800       51.65003
H         73.41631       83.48928       50.11298
H         72.04716       82.58764       49.37708
N         71.57599       80.11008       52.47258
C         70.75426       78.91071       52.54600
C         70.73827       78.15715       51.23773
O         69.66264       77.94540       50.69540
H         72.36060       80.18717       53.12642
H         69.71810       79.18804       52.83911
H         71.15176       78.23417       53.33122
N         71.89548       77.68794       50.69115
C         71.93020       76.91633       49.44947
C         72.03543       75.42372       49.71925
O         72.08371       74.66833       48.75739
C         73.11659       77.35424       48.55574
C         74.43817       76.82295       49.07098
N         75.17860       75.96538       48.33264
O         74.82726       77.13702       50.17929
H         72.76860       77.84125       51.21313
H         70.99504       77.10237       48.87593
H         73.14509       78.46073       48.46058
H         72.95557       76.93805       47.53724
H         74.87439       75.65925       47.39772
H         76.06009       75.59521       48.71111
N         72.09960       74.92440       50.98957
C         72.31350       73.51953       51.27096
C         73.44977       73.34031       52.25101
O         73.22331       72.74279       53.29224
H         71.99721       75.55029       51.80077
H         72.53976       72.94612       50.34567
H         71.38521       73.09679       51.71132
N         74.70337       73.81138       51.98015
C         75.85128       73.56687       52.85957
C         76.45935       74.85270       53.40350
O         76.01424       75.93460       53.05996
C         76.84960       72.64291       52.12527
C         77.28955       73.11674       50.75590
C         78.29034       74.08955       50.59793
C         76.70333       72.54797       49.60958
C         78.70069       74.47508       49.31300
C         77.09981       72.94776       48.33255
C         78.10434       73.91102       48.17851
O         78.49684       74.30465       46.94972
H         74.85980       74.32176       51.09776
H         75.52828       73.00928       53.76493
H         76.29995       71.68576       51.98888
H         77.73532       72.38861       52.74523
H         78.76572       74.53452       51.46293
H         75.92662       71.79926       49.70336
H         79.48114       75.21648       49.19615
H         76.62536       72.50638       47.46481
H         78.09640       73.94740       46.14347
N         77.47474       74.77402       54.31866
C         78.09291       75.92198       54.97902
C         79.53653       76.00942       54.51381
O         80.25311       75.02734       54.63286
C         78.06171       75.74696       56.53828
C         76.65747       75.45805       57.12577
C         78.70048       76.95661       57.25523
C         75.63484       76.57548       56.94605
H         77.83273       73.84212       54.57132
H         77.56271       76.86408       54.72022
H         78.67424       74.85344       56.79465
H         76.76407       75.26805       58.21786
H         76.25247       74.52956       56.67090
H         78.16826       77.90100       57.01478
H         78.69002       76.80910       58.35655
H         79.75797       77.07451       56.95595
H         74.67718       76.26431       57.41517
H         75.96142       77.51159       57.44363
H         75.46062       76.76341       55.86987
N         80.04613       77.18304       54.03723
C         81.45752       77.34096       53.68819
C         82.20057       77.99709       54.83386
O         81.59255       78.34379       55.83022
C         81.60460       78.14054       52.38768
O         81.02685       77.43113       51.33099
H         79.44463       78.01776       54.03359
H         81.93544       76.34733       53.54859
H         82.68260       78.29544       52.16416
H         81.10833       79.13001       52.50226
H         81.19233       77.97101       50.51456
N         83.55763       78.12483       54.78247
C         84.33361       78.61187       55.91503
C         83.98323       80.04252       56.26658
O         83.53247       80.27339       57.38219
C         85.83461       78.47972       55.63255
H         84.05413       77.79609       53.94246
H         84.11349       77.95928       56.79061
H         86.13326       79.08559       54.75187
H         86.41990       78.81018       56.51692
H         86.08357       77.41627       55.42761
N         84.18821       81.06482       55.38614
C         83.92972       82.45542       55.74665
C         82.45849       82.73285       56.00836
O         82.16011       83.74070       56.63288
C         84.44495       83.40650       54.66387
H         84.58760       80.84901       54.45900
H         84.49829       82.66436       56.68091
H         83.91048       83.22829       53.70586
H         84.29418       84.46330       54.97141
H         85.53188       83.24110       54.50457
N         81.48009       81.91017       55.53430
C         80.06675       82.13192       55.81660
C         79.80737       81.91090       57.29120
O         79.29123       82.80566       57.94674
C         79.18215       81.20256       54.96518
C         79.29915       81.56020       53.47107
C         78.40352       80.72871       52.60742
O         77.61864       79.77926       53.14145
O         78.37107       80.92646       51.40346
H         81.74508       81.10590       54.94749
H         79.78200       83.17439       55.54509
H         78.12064       81.34333       55.27022
H         79.45855       80.13979       55.13716
H         80.34334       81.42838       53.11993
H         79.00778       82.62405       53.33083
N         80.16956       80.74310       57.88757
C         79.96685       80.49439       59.29627
H         78.88202       80.50717       59.53006
H         80.38059       79.49886       59.56556
H         80.49046       81.26841       59.89710
H         80.62725       80.01172       57.32921
Ca        76.22535       78.70784       51.76696
O         78.43273       77.48794       50.40656
H         78.43451       77.20431       51.35537
H         77.69203       76.97473       49.99994
O         76.76929       79.01550       48.51559
H         76.14449       78.78894       47.78223
H         76.33523       79.76569       48.99237

Ca 1.0



