%chk=holoCaM-CaMKII.loop4.water2.frame218.chk
%nprocshared=20
%mem=10GB
%nosave
#b3lyp/svp scf=(tight,noincore,xqc) Test 
#IOP(5/87=12) Density=Current Pop=(MK,readradii) iop(6/33=2) iop(6/42=6)

holoCaM-CaMKII.loop4.water2.frame218 

   -3  1 
C         46.97214       71.25194       41.02489
C         47.85422       70.94113       39.85384
O         48.40025       69.84888       39.79794
H         46.14080       70.51804       41.06548
H         47.56522       71.19045       41.96074
H         46.53997       72.27214       40.94675
N         48.03593       71.85929       38.86621
C         48.87226       71.60826       37.70167
C         50.31732       71.42993       38.13169
O         50.79233       72.24524       38.91185
C         48.77840       72.78747       36.71873
C         49.30202       72.42164       35.36369
O         49.61837       71.14570       35.06202
O         49.34279       73.27128       34.49231
H         47.54416       72.76403       38.93840
H         48.47865       70.70066       37.19015
H         49.31656       73.67061       37.12850
H         47.71525       73.07183       36.56211
N         51.08769       70.41401       37.64588
C         52.44225       70.16422       38.12486
C         53.46033       70.65698       37.09927
O         54.20078       71.57684       37.42039
C         52.61435       68.65837       38.50777
C         51.46495       68.19224       39.44561
C         53.99184       68.41950       39.15209
C         51.48878       66.69683       39.77248
H         50.70053       69.79243       36.92252
H         52.61472       70.75446       39.05378
H         52.55392       68.04894       37.58274
H         50.49589       68.37374       38.93874
H         51.47362       68.77630       40.39082
H         54.15538       67.34265       39.35892
H         54.80550       68.74018       38.46974
H         54.07701       68.98465       40.10497
H         50.58813       66.43669       40.36904
H         51.47454       66.09610       38.83965
H         52.37974       66.42444       40.37162
N         53.58387       70.08769       35.86340
C         54.62311       70.49835       34.91166
C         54.37588       71.85905       34.24399
O         55.25954       72.31499       33.53116
C         54.87757       69.39797       33.85845
C         53.71880       69.11199       32.94530
O         52.55322       69.77138       33.07132
O         53.83714       68.26401       32.07590
H         52.99169       69.27621       35.64052
H         55.57797       70.57269       35.48053
H         55.14666       68.45798       34.38894
H         55.74955       69.69426       33.23517
N         53.23524       72.58041       34.44192
C         53.04574       73.93116       33.92626
C         52.87342       74.04269       32.41889
O         53.62313       74.77192       31.78655
H         52.49686       72.20458       35.05370
H         53.88804       74.57161       34.26925
H         52.11740       74.34799       34.37394
N         51.82327       73.43179       31.80466
C         51.38818       73.68824       30.42411
C         49.97257       74.29400       30.41791
O         49.39685       74.44543       29.34876
C         51.48491       72.40751       29.54919
C         50.89035       71.20700       30.21331
O         51.59088       70.23757       30.45527
O         49.67153       71.29240       30.75659
H         51.23506       72.81396       32.38132
H         52.03494       74.44090       29.92269
H         52.55897       72.19142       29.35772
H         51.00242       72.58434       28.56400
N         49.38437       74.74075       31.56676
C         48.08427       75.38672       31.63926
C         46.92726       74.44325       31.40035
O         46.03242       74.77967       30.64427
H         49.90212       74.69142       32.45397
H         48.04201       76.27443       30.97078
H         47.95291       75.75542       32.68105
N         46.86138       73.27646       32.10367
C         45.70083       72.37330       32.15327
C         45.95886       71.22173       33.13219
O         47.08660       71.03421       33.55251
C         45.25354       71.86752       30.76066
C         46.34671       71.12180       29.98056
C         45.89921       70.72401       28.58985
N         46.75382       70.07680       27.76522
O         44.77263       70.99111       28.19448
H         47.67356       73.07163       32.69435
H         44.86078       72.96148       32.58172
H         44.92490       72.73349       30.15205
H         44.36539       71.20866       30.87723
H         46.64034       70.21123       30.54165
H         47.23086       71.78410       29.87208
H         47.70906       69.84528       28.07373
H         46.46082       69.81069       26.81290
N         44.93083       70.44998       33.60134
C         45.13561       69.44297       34.64575
C         44.70764       68.07662       34.13950
O         43.53442       67.86283       33.87408
C         44.38807       69.86055       35.94283
C         44.58324       68.83119       37.06934
C         44.88866       71.23122       36.43503
H         43.97415       70.62534       33.26375
H         46.21181       69.38146       34.91661
H         43.30001       69.94309       35.72699
H         44.03740       69.15478       37.98143
H         44.18043       67.84164       36.77443
H         45.65999       68.72215       37.32135
H         45.97459       71.18912       36.66576
H         44.72053       72.01667       35.66880
H         44.34384       71.53691       37.35323
N         45.64881       67.10493       33.96395
C         45.35724       65.76019       33.47030
C         44.66846       64.94112       34.57077
O         44.55328       65.42750       35.68783
C         46.71469       65.11398       33.05900
C         46.69250       63.92649       32.12450
N         47.85998       63.33116       31.78659
O         45.65353       63.52549       31.62730
H         46.63013       67.35668       34.14256
H         44.72335       65.86315       32.56261
H         47.27805       64.86113       33.98257
H         47.30617       65.87231       32.50370
H         48.75368       63.66944       32.17370
H         47.87336       62.53111       31.13712
N         44.21538       63.67552       34.34422
C         43.71568       62.79733       35.39770
C         44.83392       62.48950       36.37890
O         44.62701       62.61526       37.57560
C         43.19931       61.47242       34.79232
C         42.62287       60.55556       35.84940
C         41.47672       60.93196       36.57212
C         43.22651       59.31633       36.12209
C         40.94572       60.08413       37.54892
C         42.69587       58.47184       37.10242
C         41.55208       58.85324       37.81868
O         41.02821       58.04773       38.76471
H         44.24292       63.30092       33.39275
H         42.86391       63.28979       35.91758
H         44.03702       60.97005       34.26014
H         42.40709       61.68340       34.04191
H         40.99021       61.87934       36.37753
H         44.11181       59.00516       35.58190
H         40.06112       60.38464       38.09665
H         43.17458       57.52193       37.30431
H         41.41629       57.18798       38.98159
N         46.04947       62.06122       35.92745
C         47.16320       61.72100       36.81176
C         47.69599       62.89671       37.63548
O         48.55730       62.64873       38.46859
C         48.31726       61.06963       36.01003
C         49.01050       62.03579       35.03247
C         50.09027       61.33747       34.25842
O         49.81484       60.40065       33.52551
O         51.36769       61.75222       34.35683
H         46.16474       61.93555       34.91105
H         46.79016       60.94811       37.52069
H         47.90597       60.19992       35.45085
H         49.08075       60.68061       36.72020
H         49.46194       62.87742       35.59931
H         48.27951       62.45246       34.31428
N         47.24625       64.18149       37.48322
C         47.72857       65.29676       38.29781
C         46.66038       65.79205       39.26476
O         46.99074       66.59091       40.13084
C         48.19020       66.46873       37.40798
C         49.26711       66.06547       36.39482
C         49.72331       67.25051       35.59300
O         51.02178       67.59612       35.58932
O         48.93011       67.89451       34.92635
H         46.52906       64.38768       36.78017
H         48.58410       64.96145       38.92444
H         48.58556       67.27774       38.05935
H         47.31242       66.86812       36.85196
H         48.86012       65.30413       35.69942
H         50.13807       65.62711       36.92443
N         45.36587       65.37265       39.19302
C         44.35640       65.79088       40.13778
H         43.37697       65.34308       39.86113
H         44.62844       65.43837       41.15510
H         44.25877       66.89604       40.13160
H         45.06499       64.74485       38.44456
Ca        49.82601       70.69044       32.89359
O         48.33855       68.10110       31.16050
H         48.61152       67.18540       30.90214
H         48.51202       68.64349       30.35110
O         50.80001       66.76776       32.51441
H         51.65319       66.92685       32.98935
H         50.43428       65.94782       32.93192

Ca 1.0



