%chk=holoCaM.loop3.water2.frame192.chk
%nprocshared=20
%mem=10GB
%nosave
#b3lyp/svp scf=(tight,noincore,xqc) Test 
#IOP(5/87=12) Density=Current Pop=(MK,readradii) iop(6/33=2) iop(6/42=6)

holoCaM.loop3.water2.frame192 

   0  1 
C         37.22888       54.25134       85.67462
C         38.30422       55.11594       86.25644
O         39.45300       54.99163       85.85374
H         36.45867       54.89736       85.20104
H         37.64658       53.57672       84.89651
H         36.75916       53.64231       86.47285
N         37.99002       56.06438       87.18270
C         38.97905       57.01054       87.67337
C         39.99762       56.31835       88.58227
O         39.62552       55.81122       89.63144
C         38.28932       58.19592       88.37215
C         39.29403       59.27459       88.58375
O         39.93651       59.79381       87.51862
O         39.58818       59.62311       89.71060
H         37.00222       56.17127       87.46233
H         39.48406       57.42514       86.77156
H         37.82277       57.86948       89.32738
H         37.49341       58.61293       87.72360
N         41.29746       56.21136       88.18679
C         42.29470       55.38159       88.86402
C         42.85910       56.03718       90.12580
O         42.65081       55.50385       91.20626
C         43.38584       55.01384       87.83302
C         44.30680       53.86083       88.24624
C         45.18347       53.46797       87.04423
C         46.00465       52.20269       87.30819
N         46.76616       51.82733       86.11537
H         41.52779       56.59330       87.26059
H         41.79293       54.42450       89.13486
H         43.98116       55.90627       87.54316
H         42.84472       54.66444       86.92455
H         43.67370       52.98896       88.52144
H         44.93328       54.14182       89.12041
H         45.85771       54.31244       86.78043
H         44.52401       53.25926       86.17217
H         45.31578       51.36880       87.57160
H         46.69917       52.37177       88.15943
H         47.29880       50.94881       86.30765
H         46.11697       51.65484       85.31246
H         47.43900       52.58699       85.86263
N         43.60322       57.18241       90.06069
C         44.17259       57.85640       91.23745
C         43.09361       58.24411       92.25507
O         43.21719       57.84169       93.40373
C         45.10593       59.06062       90.86003
C         44.54257       60.09215       89.91838
O         45.19057       61.07552       89.59931
O         43.35354       59.86126       89.36592
H         43.78694       57.57067       89.12632
H         44.85100       57.14258       91.75739
H         46.01084       58.65782       90.35642
H         45.43466       59.55919       91.79829
N         42.01000       58.99808       91.91454
C         40.95141       59.38573       92.83204
C         40.88096       60.89206       92.96415
O         40.93561       61.37635       94.08600
H         41.88764       59.28979       90.94570
H         41.09592       58.93942       93.84159
H         39.98656       59.00290       92.43747
N         40.78753       61.70122       91.86393
C         40.74369       63.15982       91.94098
C         39.54452       63.75722       91.19521
O         39.43639       64.97470       91.16483
C         42.08685       63.74420       91.44411
C         42.25154       63.76535       89.94791
N         42.51238       64.92306       89.29724
O         42.16234       62.73242       89.31681
H         40.80851       61.27408       90.93135
H         40.66801       63.46912       93.00572
H         42.91702       63.15836       91.89831
H         42.17763       64.78599       91.81527
H         42.61325       65.80954       89.81162
H         42.63267       64.93278       88.27454
N         38.59747       62.97624       90.58834
C         37.41997       63.51536       89.91958
C         37.61425       63.83998       88.44333
O         36.63826       64.25608       87.83400
H         38.63681       61.95378       90.69348
H         37.03438       64.39824       90.47675
H         36.61825       62.74632       89.96547
N         38.80604       63.68241       87.79078
C         38.99753       63.98235       86.36596
C         39.57713       62.78429       85.63466
O         40.58678       62.27014       86.09070
C         39.97627       65.15486       86.16571
C         39.46074       66.46336       86.70827
C         39.39729       66.69821       88.09063
C         39.05355       67.47523       85.82237
C         38.93053       67.92203       88.57892
C         38.58071       68.69462       86.31084
C         38.51872       68.92304       87.69237
O         38.06958       70.09811       88.17643
H         39.62566       63.35616       88.32353
H         38.04229       64.27934       85.87761
H         40.11696       65.26062       85.06616
H         40.97352       64.93673       86.59957
H         39.72213       65.94146       88.78904
H         39.09348       67.31891       84.75130
H         38.89234       68.09295       89.64728
H         38.26506       69.46021       85.61350
H         37.77758       70.81442       87.59452
N         39.04789       62.32957       84.45621
C         39.62588       61.20909       83.70381
C         40.10832       61.68019       82.33069
O         39.57958       62.65608       81.81181
C         38.58489       60.05143       83.54442
C         37.87816       59.74431       84.88572
C         39.25782       58.77655       82.98854
C         36.76903       58.69597       84.78202
H         38.21502       62.80096       84.06883
H         40.50359       60.81210       84.26006
H         37.79711       60.38970       82.83517
H         37.39556       60.67010       85.26513
H         38.62149       59.40375       85.61981
H         38.53181       57.95610       82.83991
H         39.69054       58.95127       81.99138
H         40.05732       58.42631       83.67895
H         37.17588       57.69599       84.53329
H         36.25283       58.60527       85.75892
H         36.02222       59.00109       84.01976
N         41.09903       61.00815       81.67454
C         41.55665       61.31721       80.32099
C         41.40427       60.11179       79.39606
O         41.02137       59.03907       79.84618
C         43.03490       61.74574       80.36949
O         43.82670       60.70172       80.87090
H         41.55492       60.22810       82.16412
H         40.96271       62.15420       79.89332
H         43.13049       62.63651       81.02810
H         43.38257       62.01669       79.34765
H         44.76463       61.02445       80.84361
N         41.71190       60.22177       78.07276
C         41.74804       59.08903       77.15099
C         42.87502       58.14799       77.53262
O         42.65873       56.94810       77.58367
C         41.96509       59.56929       75.71360
H         41.96470       61.15411       77.70841
H         40.77121       58.55277       77.15753
H         41.97445       58.69751       75.02269
H         41.12917       60.23628       75.41303
H         42.92368       60.11949       75.61197
N         44.11614       58.64042       77.82127
C         45.24299       57.80432       78.23436
C         45.04093       57.11459       79.58875
O         45.91063       56.34123       79.96673
C         46.51741       58.65789       78.29629
H         44.26454       59.65747       77.73210
H         45.39711       57.02360       77.45705
H         46.70493       59.12879       77.30749
H         46.41091       59.45950       79.05920
H         47.39928       58.03247       78.55165
N         43.93778       57.32660       80.36741
C         43.70008       56.67241       81.65358
C         42.51946       55.70212       81.56953
O         42.29355       54.97428       82.52514
C         43.46194       57.77935       82.70031
C         43.30594       57.32144       84.15951
C         43.08723       58.48939       85.08902
O         43.00846       58.27405       86.41207
O         42.98694       59.63135       84.66611
H         43.22203       57.98619       80.04880
H         44.59185       56.07559       81.94419
H         42.54728       58.32523       82.40379
H         44.32724       58.47838       82.65981
H         44.22858       56.78681       84.46924
H         42.43706       56.64282       84.27579
N         41.73836       55.61374       80.45340
C         40.64224       54.68308       80.29626
H         39.70418       55.25044       80.12083
H         40.83966       54.04303       79.40976
H         40.50832       54.02944       81.18141
H         41.90482       56.23144       79.65873
Ca        41.96742       60.61306       87.83049
O         45.37878       60.17386       86.58128
H         45.42709       60.27535       85.59784
H         45.64119       61.06100       86.93187
O         43.34492       62.84203       85.69128
H         43.09318       63.74094       86.02078
H         43.13178       62.86451       84.72448

Ca 1.0



