%chk=holoCaM.loop3.water3.frame31.chk
%nprocshared=20
%mem=10GB
%nosave
#b3lyp/svp scf=(tight,noincore,xqc) Test 
#IOP(5/87=12) Density=Current Pop=(MK,readradii) iop(6/33=2) iop(6/42=6)

holoCaM.loop3.water3.frame31 

   0  1 
C         74.40748       97.13372       28.71199
C         73.96797       98.39485       28.03944
O         73.43310       99.27684       28.69706
H         74.17913       97.16678       29.79759
H         73.88024       96.27157       28.25340
H         75.50266       97.00752       28.57652
N         74.18898       98.55533       26.70853
C         73.82076       99.76685       25.99716
C         72.30283       99.90684       25.96416
O         71.62870       99.05445       25.40324
C         74.43863       99.73233       24.58928
C         74.33832      101.02028       23.83753
O         73.70763      102.09629       24.34162
O         74.86348      101.09234       22.74491
H         74.67607       97.80000       26.19989
H         74.28997      100.62445       26.52975
H         73.98447       98.91411       23.98864
H         75.52652       99.52663       24.69638
N         71.70617      100.96211       26.58179
C         70.26582      101.18306       26.65595
C         69.64616      101.28798       25.27253
O         68.70503      100.55684       24.99773
C         69.99691      102.46663       27.48039
C         68.50561      102.77941       27.68083
C         68.32529      104.05308       28.52178
C         66.84047      104.39288       28.70976
N         66.67737      105.62475       29.48266
H         72.31550      101.63689       27.05681
H         69.79796      100.33218       27.20066
H         70.48559      103.32924       26.98102
H         70.46101      102.33814       28.48352
H         68.01465      101.92428       28.19450
H         68.02223      102.93196       26.69177
H         68.82485      104.90325       28.00961
H         68.79831      103.91219       29.51901
H         66.33108      103.55657       29.23807
H         66.36185      104.52392       27.71381
H         67.12761      106.42564       28.98235
H         65.65746      105.82809       29.59218
H         67.10474      105.51674       30.43111
N         70.11821      102.18180       24.35772
C         69.50107      102.39943       23.04897
C         70.38152      101.95183       21.88502
O         69.99666      102.18403       20.74662
C         69.05758      103.87639       22.92089
C         70.15577      104.90854       22.94257
O         71.32803      104.59404       23.05164
O         69.83172      106.21046       22.83623
H         70.94414      102.74205       24.61248
H         68.56820      101.80074       22.95619
H         68.35775      104.10199       23.75460
H         68.49846      103.99967       21.96829
N         71.52376      101.22946       22.07537
C         72.30717      100.68947       20.97219
C         73.07662      101.72033       20.16129
O         73.67100      101.31871       19.17072
H         71.79300      100.95617       23.02843
H         71.62267      100.12705       20.29901
H         73.04190       99.95545       21.36416
N         73.11994      103.04870       20.48535
C         73.77066      104.03780       19.62033
C         75.29274      103.88478       19.52616
O         75.88973      104.53180       18.67663
C         73.39906      105.47685       20.03991
C         74.14437      105.95781       21.26267
N         74.92213      107.06449       21.19160
O         74.05333      105.34875       22.31671
H         72.61306      103.37331       21.31661
H         73.33233      103.88448       18.60881
H         72.30222      105.53811       20.21409
H         73.63386      106.15644       19.19304
H         75.00765      107.59680       20.31306
H         75.43941      107.39863       22.01597
N         75.98361      103.07456       20.37874
C         77.41508      102.83260       20.31826
C         78.15875      103.20978       21.58989
O         79.33976      102.90208       21.65120
H         75.47007      102.57459       21.10428
H         77.89047      103.36975       19.46827
H         77.55811      101.74414       20.14760
N         77.58346      103.92322       22.60992
C         78.35411      104.40108       23.76637
C         77.60378      104.23460       25.08131
O         76.42607      103.91027       25.07685
C         78.65368      105.89436       23.55085
C         79.51929      106.09389       22.33310
C         78.96070      106.55364       21.12952
C         80.89257      105.80450       22.38886
C         79.76356      106.71662       19.99743
C         81.69730      105.98560       21.26030
C         81.13363      106.44021       20.05893
O         81.89610      106.61481       18.96088
H         76.61473      104.25462       22.50324
H         79.30978      103.83832       23.85582
H         79.15529      106.36041       24.42687
H         77.67850      106.40982       23.41457
H         77.90131      106.76606       21.06167
H         81.34061      105.45077       23.30956
H         79.31928      107.05851       19.07137
H         82.75694      105.77093       21.32039
H         82.84886      106.44459       18.96366
N         78.26872      104.43035       26.26446
C         77.64800      104.33870       27.58655
C         78.08709      105.52928       28.44486
O         79.28067      105.71722       28.63018
C         77.97984      102.96888       28.26204
C         77.40224      101.81116       27.39519
C         77.39155      102.91196       29.69036
C         77.67238      100.40386       27.93052
H         79.28399      104.60617       26.22605
H         76.55442      104.36687       27.48513
H         79.08377      102.85707       28.33842
H         77.85173      101.85484       26.38190
H         76.30172      101.93509       27.29286
H         77.65819      101.96545       30.20090
H         77.80794      103.72063       30.32316
H         76.28549      103.00886       29.66695
H         78.76405      100.23120       28.02929
H         77.17466      100.23400       28.90642
H         77.25506       99.65897       27.21906
N         77.16102      106.33402       29.05187
C         77.50231      107.45326       29.93809
C         77.44833      107.03996       31.40758
O         77.11054      105.90537       31.69477
C         76.55098      108.63352       29.66708
O         75.22725      108.26061       29.95449
H         76.16764      106.10463       28.92580
H         78.54379      107.78455       29.73600
H         76.61969      108.93686       28.60065
H         76.85454      109.50051       30.29768
H         74.74482      109.08047       30.23743
N         77.82320      107.90787       32.39818
C         77.85867      107.53869       33.81948
C         76.47936      107.36122       34.45879
O         76.42379      106.95519       35.61151
C         78.63648      108.59210       34.61558
H         78.16759      108.83950       32.12091
H         78.41951      106.58150       33.90916
H         79.66078      108.69736       34.19931
H         78.12236      109.57567       34.56736
H         78.72914      108.28450       35.67975
N         75.33126      107.62923       33.78033
C         73.98617      107.42778       34.31816
C         73.37375      106.20509       33.66148
O         72.86323      105.33704       34.35469
C         73.14000      108.67905       34.06593
H         75.40710      107.96950       32.81374
H         74.00298      107.25367       35.41742
H         73.06886      108.89947       32.97901
H         72.11379      108.53510       34.46747
H         73.59631      109.55360       34.57705
N         73.50161      106.03520       32.31925
C         73.10753      104.85046       31.56390
C         73.64437      103.58073       32.21445
O         72.86480      102.67924       32.48848
C         73.68896      105.02162       30.14821
C         73.31700      103.96973       29.10849
C         74.10491      104.29085       27.83798
O         73.78567      105.55529       27.32860
O         73.87436      103.36214       26.82752
H         73.98033      106.78243       31.79955
H         71.99819      104.79958       31.50926
H         74.79362      105.03916       30.25136
H         73.35717      106.00814       29.75432
H         72.22430      103.98914       28.91601
H         73.61364      102.95976       29.46414
N         74.96538      103.45749       32.51881
C         75.52190      102.28242       33.15154
H         76.60968      102.43087       33.32917
H         75.02800      102.10497       34.13041
H         75.38788      101.39822       32.49454
H         75.60042      104.23431       32.31578
Ca        73.43665      104.87746       25.19748
O         75.65044      107.13878       25.06518
H         75.69962      107.79634       24.32718
H         76.46599      107.30791       25.60005
O         70.95349      105.90661       26.68376
H         70.81045      105.48851       25.79783
H         71.24627      106.82964       26.48065
O         72.81643      107.66518       23.83731
H         72.04288      107.14391       24.16606
H         72.57556      107.90082       22.90670

Ca 1.0



