%chk=holoCaM.loop2.water1.frame161.chk
%nprocshared=20
%mem=10GB
%nosave
#b3lyp/svp scf=(tight,noincore,xqc) Test 
#IOP(5/87=12) Density=Current Pop=(MK,readradii) iop(6/33=2) iop(6/42=6)

holoCaM.loop2.water1.frame161 

   -2  1 
C        108.22197       86.50680       75.05140
C        109.22201       86.25855       76.14800
O        108.90697       86.40056       77.31955
H        107.23793       86.82161       75.45260
H        108.60757       87.29285       74.36692
H        108.08493       85.57227       74.46244
N        110.46528       85.84803       75.80085
C        111.53744       85.48715       76.72312
C        112.07225       86.65770       77.55191
O        112.36537       87.70343       76.99062
C        112.68058       84.90645       75.87772
C        113.85218       84.53485       76.70656
O        114.93130       85.05464       76.47602
O        113.71258       83.65495       77.71653
H        110.64007       85.73331       74.78864
H        111.18648       84.67716       77.39868
H        113.00206       85.65513       75.12007
H        112.32136       83.99703       75.35030
N        112.34330       86.48213       78.88499
C        112.98381       87.47773       79.74328
C        114.32265       87.00844       80.35811
O        114.94882       87.83306       81.00987
C        112.01281       87.84809       80.87468
H        112.10027       85.58523       79.31138
H        113.19535       88.39646       79.15572
H        112.44251       88.64031       81.52485
H        111.05672       88.22613       80.45407
H        111.79111       86.95763       81.50423
N        114.80204       85.72348       80.26002
C        116.01656       85.25213       80.96536
C        116.98310       84.38536       80.12766
O        118.03500       84.03053       80.64154
C        115.59752       84.49090       82.23833
C        114.77849       83.26632       81.96640
O        114.30590       82.63624       82.89821
O        114.52724       82.86849       80.70972
H        114.21634       85.03510       79.77876
H        116.60249       86.13080       81.31321
H        114.98554       85.17812       82.86186
H        116.49311       84.19743       82.82742
N        116.71405       84.02948       78.84236
C        117.63416       83.32238       77.95532
C        117.76732       81.81533       78.14638
O        118.59731       81.24320       77.45327
H        115.86121       84.38879       78.43632
H        118.63476       83.80116       78.03572
H        117.29283       83.46405       76.90740
N        117.02981       81.09433       79.04052
C        117.29418       79.67218       79.29796
C        116.92074       78.69896       78.16225
O        117.25515       77.52954       78.29555
C        116.66416       79.23378       80.64411
C        115.16291       79.19561       80.66976
N        114.51118       78.80523       81.78690
O        114.52524       79.50609       79.68293
H        116.34932       81.59062       79.62850
H        118.39098       79.58022       79.45447
H        117.00810       79.92911       81.44023
H        117.02661       78.21469       80.89461
H        115.02904       78.54504       82.63794
H        113.48408       78.75365       81.79510
N        116.21588       79.07135       77.05124
C        115.88916       78.15441       75.95516
C        114.42335       77.74308       75.90536
O        114.04885       77.06290       74.96118
H        115.89192       80.04227       76.96957
H        116.47262       77.20974       76.02548
H        116.17913       78.63788       74.99758
N        113.56601       78.02409       76.92824
C        112.19296       77.52792       77.01859
C        111.23093       78.64091       77.43558
O        111.66555       79.74725       77.70879
C        112.13890       76.36543       78.05179
C        113.04214       75.18584       77.65371
O        112.44858       76.81427       79.34996
H        113.93374       78.52374       77.73390
H        111.86163       77.12722       76.03604
H        111.10681       75.95846       78.08163
H        113.42384       76.99086       79.39243
H        114.11079       75.48793       77.63194
H        112.93094       74.35990       78.38764
H        112.75731       74.80676       76.64928
N        109.89850       78.38351       77.57267
C        108.93302       79.34834       78.09068
C        108.59361       78.94922       79.51406
O        108.23126       77.81055       79.76993
C        107.69178       79.46997       77.15240
C        108.10959       80.25919       75.87943
C        106.51053       80.16895       77.86222
C        106.98740       80.48063       74.86272
H        109.55626       77.43120       77.37965
H        109.37805       80.36253       78.15569
H        107.33892       78.45074       76.88143
H        108.93525       79.71786       75.37061
H        108.48878       81.26388       76.17632
H        105.61033       80.19064       77.21661
H        106.20358       79.60419       78.76707
H        106.77425       81.20368       78.15153
H        106.57559       79.51023       74.51921
H        106.17353       81.10491       75.28646
H        107.39110       81.03394       73.98833
N        108.67571       79.89454       80.49122
C        108.43425       79.66105       81.90711
C        107.06952       80.19291       82.26061
O        106.36662       80.66698       81.38839
C        109.50375       80.41075       82.72932
C        110.89245       80.01064       82.35885
O        111.25251       80.05891       81.06539
O        111.72130       79.77913       83.22425
H        108.89387       80.86243       80.21832
H        108.45737       78.57547       82.14224
H        109.36256       80.28689       83.82422
H        109.41349       81.49745       82.50202
N        106.61728       80.12076       83.53725
C        105.29642       80.58143       83.93656
C        105.07756       82.07825       83.66043
O        104.11769       82.36263       82.95439
C        105.04052       80.16975       85.39879
C        103.73982       80.70193       85.92733
C        102.51656       80.34526       85.33604
C        103.74938       81.57411       87.02684
C        101.31993       80.85940       85.84225
C        102.55294       82.08399       87.52934
C        101.33839       81.72754       86.93824
H        107.22702       79.68708       84.24536
H        104.54414       80.02650       83.33098
H        105.86975       80.50432       86.04367
H        105.04034       79.05948       85.46275
H        102.48836       79.67373       84.48667
H        104.68418       81.86208       87.49301
H        100.37877       80.58484       85.38479
H        102.57123       82.75597       88.37674
H        100.41244       82.12479       87.33018
N        105.86887       83.09610       84.13519
C        105.64638       84.51049       83.82841
C        105.48900       84.78275       82.34178
O        104.58499       85.49360       81.93015
C        106.94292       85.19174       84.30459
C        107.34359       84.33128       85.47121
C        107.06299       82.92685       84.94311
H        104.76922       84.87820       84.40690
H        107.75527       85.06203       83.55304
H        106.84492       86.27886       84.51225
H        108.37995       84.48611       85.84165
H        106.62836       84.54757       86.29646
H        107.87888       82.54633       84.29126
H        106.93393       82.28307       85.82513
N        106.39264       84.23308       81.49260
C        106.47749       84.47088       80.05734
C        105.21679       84.00481       79.34826
O        104.71132       84.72451       78.49838
C        107.72753       83.74643       79.50179
C        109.02882       84.24269       80.18484
C        110.25484       83.47825       79.79203
O        110.23129       82.63306       78.91300
O        111.39445       83.69980       80.46983
H        107.07444       83.59248       81.91919
H        106.62614       85.55596       79.85962
H        107.80667       83.90879       78.40435
H        107.61207       82.66203       79.69339
H        108.97049       84.11844       81.28096
H        109.18732       85.32375       79.98361
N        104.63427       82.81995       79.67335
C        103.43755       82.32244       79.03381
H        102.61007       83.05442       79.14409
H        103.63604       82.13194       77.95885
H        103.12772       81.36692       79.51161
H        105.03595       82.26004       80.42748
Ca       112.90356       81.39924       80.51790
O        113.65287       81.21711       76.66123
H        112.76805       81.54599       76.36338
H        114.03077       80.77855       75.86109

Ca 1.0



