%chk=holoCaM.loop3.water2.frame493.chk
%nprocshared=20
%mem=10GB
%nosave
#b3lyp/svp scf=(tight,noincore,xqc) Test 
#IOP(5/87=12) Density=Current Pop=(MK,readradii) iop(6/33=2) iop(6/42=6)

holoCaM.loop3.water2.frame493 

   0  1 
C          3.54718       61.34994       17.79870
C          4.11096       60.01766       18.18099
O          5.27592       59.77525       17.89783
H          2.49082       61.45122       18.12353
H          4.14697       62.15085       18.27940
H          3.59607       61.46575       16.69584
N          3.33904       59.09493       18.82311
C          3.83893       57.79019       19.22271
C          3.09778       56.73836       18.40801
O          1.89302       56.58977       18.55904
C          3.73526       57.68200       20.75765
C          4.43936       56.49591       21.32992
O          4.78717       55.47170       20.54203
O          4.64086       56.43397       22.52957
H          2.35422       59.32129       19.03382
H          4.92160       57.71768       18.97878
H          2.68207       57.71627       21.11348
H          4.26295       58.57215       21.16501
N          3.75868       56.08739       17.40364
C          3.08296       55.30946       16.36364
C          2.59435       53.94853       16.82362
O          1.71074       53.40105       16.17861
C          3.98364       55.13276       15.11601
C          4.55435       56.44687       14.53545
C          3.46979       57.49066       14.23864
C          4.06056       58.74859       13.59464
N          3.02123       59.75808       13.39423
H          4.75357       56.30566       17.28119
H          2.18791       55.88973       16.05081
H          3.38721       54.62958       14.32364
H          4.84356       54.47231       15.36679
H          5.10280       56.19531       13.60163
H          5.29219       56.89388       15.23497
H          2.98449       57.79363       15.19064
H          2.70521       57.05375       13.56068
H          4.51664       58.48248       12.61529
H          4.85423       59.17095       14.25117
H          3.43900       60.59492       12.92795
H          2.25731       59.37621       12.79038
H          2.62549       60.04946       14.31822
N          3.13967       53.32984       17.90411
C          2.65815       52.05672       18.44457
C          2.09107       52.25461       19.85296
O          1.60902       51.28768       20.42638
C          3.74931       50.94270       18.36909
C          5.01346       51.23245       19.13182
O          5.92419       50.42209       19.17827
O          5.12151       52.41226       19.74277
H          3.91159       53.81169       18.38003
H          1.80877       51.67950       17.83363
H          4.01962       50.77892       17.30366
H          3.31362       49.99794       18.76087
N          2.04087       53.49055       20.44332
C          1.35999       53.75670       21.69792
C          1.99842       53.16323       22.93406
O          1.39443       53.31294       23.98769
H          2.40249       54.31662       19.95202
H          0.31500       53.38601       21.61089
H          1.31009       54.85689       21.85588
N          3.18535       52.48355       22.92516
C          3.70505       51.85581       24.14090
C          4.09039       52.85707       25.23918
O          4.37606       52.40743       26.33955
C          4.86517       50.87256       23.82422
C          6.17422       51.50111       23.41454
N          7.23000       50.72625       23.07923
O          6.30035       52.70916       23.40358
H          3.68898       52.34978       22.03721
H          2.88024       51.21974       24.53429
H          4.52791       50.18775       23.01523
H          5.06997       50.25844       24.72667
H          7.15398       49.69947       23.08803
H          8.12753       51.15760       22.80955
N          4.13994       54.20963       25.01908
C          4.47642       55.18800       26.05127
C          5.77200       55.94167       25.77991
O          6.13790       56.76600       26.60605
H          3.93073       54.57769       24.08297
H          4.59471       54.69352       27.03941
H          3.63843       55.91148       26.13968
N          6.55156       55.67055       24.69511
C          7.88909       56.21249       24.47723
C          8.04741       56.77845       23.08029
O          7.61053       56.15058       22.12628
C          8.89604       55.05823       24.64351
C          8.96464       54.60172       26.07865
C          8.52353       53.32314       26.45549
C          9.48507       55.46597       27.05724
C          8.59790       52.92061       27.79363
C          9.56493       55.05990       28.38966
C          9.12024       53.78478       28.76356
O          9.19260       53.38085       30.04765
H          6.23474       54.96419       24.02506
H          8.14748       57.00329       25.21454
H          9.91797       55.37923       24.34358
H          8.59576       54.22283       23.97278
H          8.11631       52.64176       25.71911
H          9.83842       56.45331       26.78611
H          8.25096       51.93517       28.07698
H          9.97424       55.73751       29.12845
H          9.55343       53.94825       30.74423
N          8.80321       57.89750       22.88163
C          9.15318       58.40744       21.56058
C         10.64276       58.18131       21.33769
O         11.46289       58.78763       22.01370
C          8.73747       59.90317       21.42875
C          7.18948       60.00562       21.44147
C          9.32361       60.54594       20.15569
C          6.65698       61.43974       21.42827
H          9.21955       58.36694       23.70120
H          8.61558       57.83956       20.76942
H          9.15414       60.45979       22.29850
H          6.79821       59.52013       22.36089
H          6.77406       59.46413       20.56238
H          9.07639       61.62396       20.10092
H         10.43115       60.50498       20.17060
H          8.95268       60.03442       19.24468
H          5.54765       61.41744       21.46793
H          7.03592       61.99800       22.31002
H          6.94009       61.97522       20.49999
N         11.04968       57.28469       20.39352
C         12.44373       57.01781       20.05095
C         13.03141       58.18179       19.26606
O         12.33747       59.15591       19.03168
C         12.52533       55.72234       19.21195
O         11.81545       55.86560       18.01342
H         10.32545       56.74945       19.89866
H         13.02659       56.83869       20.98072
H         12.08833       54.88674       19.80313
H         13.58555       55.47459       18.98873
H         11.92320       55.01134       17.52018
N         14.30731       58.13561       18.79444
C         14.86619       59.16984       17.92834
C         14.11501       59.23023       16.60367
O         13.66971       60.30267       16.22068
C         16.34909       58.89172       17.66185
H         14.89479       57.32456       19.03983
H         14.81221       60.15664       18.44150
H         16.77745       59.69539       17.02483
H         16.90500       58.87860       18.62377
H         16.49073       57.91441       17.15409
N         13.93594       58.10080       15.85763
C         13.27100       58.07148       14.55424
C         11.86792       58.64439       14.61362
O         11.56661       59.54966       13.84823
C         13.20857       56.63140       14.02682
H         14.29693       57.21271       16.24020
H         13.86948       58.66748       13.82935
H         12.62377       55.98197       14.71380
H         12.73027       56.61000       13.02385
H         14.23361       56.21446       13.93326
N         10.96426       58.17323       15.51626
C          9.60111       58.68653       15.64624
C          9.63218       60.19065       15.86013
O          8.97995       60.90840       15.11488
C          8.85033       57.96849       16.79711
C          8.66073       56.46653       16.49772
C          7.90804       55.75309       17.58520
O          8.38444       55.72387       18.84170
O          6.88072       55.15152       17.32383
H         11.28406       57.44072       16.16200
H          9.03516       58.48778       14.70804
H          7.84319       58.42764       16.91108
H          9.40633       58.10091       17.75169
H          9.64108       55.96366       16.38824
H          8.10753       56.35473       15.53898
N         10.43593       60.73497       16.81190
C         10.60153       62.15937       17.01686
H         11.65940       62.43417       16.81534
H          9.95225       62.76259       16.34930
H         10.36553       62.41342       18.06942
H         11.00069       60.10725       17.38952
Ca         6.23388       53.83401       21.00760
O          9.72486       53.94418       21.50328
H          9.88697       54.90266       21.32306
H         10.43151       53.69427       22.14938
O          8.53740       52.29759       19.31775
H          8.31495       51.61080       19.99563
H          9.28161       51.90200       18.79842

Ca 1.0



