%chk=holoCaM-CaMKII.loop1.water2.frame85.chk
%nprocshared=20
%mem=10GB
%nosave
#b3lyp/svp scf=(tight,noincore,xqc) Test 
#IOP(5/87=12) Density=Current Pop=(MK,readradii) iop(6/33=2) iop(6/42=6)

holoCaM-CaMKII.loop1.water2.frame85 

   0  1 
C         -7.42419       47.93345       72.55419
C         -8.36522       47.99403       73.72046
O         -8.52608       46.99176       74.40196
H         -6.41358       47.65228       72.92102
H         -7.77306       47.17749       71.82269
H         -7.34372       48.91788       72.04601
N         -8.99111       49.16013       74.03952
C         -9.79874       49.31172       75.24148
C        -11.06313       48.45433       75.17544
O        -11.94060       48.72696       74.36792
C        -10.11120       50.80377       75.44619
C        -10.69407       51.12739       76.78038
O        -10.90710       52.29242       77.05284
O        -10.92794       50.17416       77.70034
H         -8.81050       49.98865       73.45039
H         -9.15891       48.99228       76.09558
H        -10.78384       51.16942       74.63912
H         -9.15565       51.37065       75.38546
N        -11.17640       47.35421       75.97409
C        -12.27408       46.38857       75.89956
C        -13.54951       46.84894       76.61213
O        -14.55841       46.17210       76.47614
C        -11.76700       45.03162       76.46370
C        -12.71543       43.82135       76.34015
C        -13.24908       43.56169       74.92049
C        -12.14486       43.36126       73.87062
N        -12.72848       43.15573       72.54603
H        -10.36008       47.12119       76.55031
H        -12.50093       46.23908       74.82224
H        -11.50577       45.14981       77.53660
H        -10.82552       44.77588       75.93081
H        -13.58371       43.95621       77.01817
H        -12.16687       42.92169       76.69704
H        -13.89320       44.41066       74.61259
H        -13.88913       42.65297       74.95235
H        -11.51834       42.48449       74.14602
H        -11.49123       44.25797       73.82427
H        -13.32643       42.29813       72.54323
H        -13.30416       43.98785       72.27834
H        -11.96028       43.04168       71.84634
N        -13.59268       47.96963       77.38956
C        -14.79728       48.41967       78.09292
C        -15.24870       49.79782       77.64865
O        -16.27576       50.24760       78.14183
C        -14.50269       48.53513       79.60176
C        -14.25909       47.23169       80.28588
O        -13.07268       46.98447       80.85802
O        -15.15927       46.41562       80.39299
H        -12.73563       48.52203       77.51057
H        -15.64903       47.72554       77.92210
H        -15.35940       49.00081       80.13630
H        -13.62451       49.20405       79.73591
N        -14.51605       50.57050       76.80109
C        -14.83143       51.96754       76.57483
C        -14.77745       52.71802       77.89043
O        -15.72267       53.41402       78.23087
H        -13.65742       50.20719       76.36510
H        -15.82466       52.07637       76.08732
H        -14.06039       52.39675       75.89859
N        -13.68201       52.58496       78.68895
C        -13.47692       53.27836       79.95490
C        -12.25983       54.20075       79.86648
O        -11.81357       54.70329       80.88840
C        -13.38790       52.25377       81.11643
C        -12.23607       51.28140       81.09685
O        -12.13746       50.36734       82.08050
O        -11.39298       51.30184       80.21824
H        -12.93589       51.95439       78.37167
H        -14.35005       53.92259       80.19771
H        -14.32922       51.66151       81.12339
H        -13.33414       52.81079       82.07647
N        -11.72513       54.53188       78.65242
C        -10.62297       55.45480       78.45188
C         -9.24983       54.94880       78.85513
O         -8.31159       55.70300       78.64195
H        -12.18143       54.19628       77.79425
H        -10.84532       56.41094       78.97399
H        -10.55916       55.67716       77.36398
N         -9.02705       53.73540       79.44937
C         -7.69282       53.31595       79.89399
C         -7.31745       51.91381       79.42048
O         -8.13428       51.22095       78.83184
C         -7.59135       53.43516       81.43339
C         -7.74396       54.89117       81.89959
O         -8.52314       52.60387       82.07825
H         -9.82382       53.12568       79.66246
H         -6.92177       53.99158       79.46318
H         -6.57664       53.11687       81.75272
H         -9.42710       52.99538       81.95662
H         -7.61334       54.95033       82.99964
H         -6.97076       55.52738       81.41709
H         -8.74649       55.29261       81.64069
N         -6.03666       51.46871       79.61691
C         -5.50989       50.18794       79.14617
C         -4.86191       49.44570       80.32044
O         -4.05107       50.04148       81.01537
C         -4.45897       50.43313       78.01761
C         -5.05174       51.33324       76.89732
C         -3.98498       49.08312       77.43367
C         -4.04559       51.70671       75.80595
H         -5.36588       52.10843       80.06809
H         -6.31650       49.57565       78.69457
H         -3.58545       50.96449       78.45675
H         -5.38781       52.29337       77.34265
H         -5.93343       50.84033       76.43177
H         -4.83488       48.54822       76.95659
H         -3.18722       49.22261       76.67823
H         -3.55551       48.43408       78.22179
H         -4.52449       52.40686       75.08926
H         -3.16264       52.21055       76.25401
H         -3.71418       50.81892       75.23183
N         -5.11562       48.12264       80.54882
C         -4.48492       47.33424       81.61086
C         -3.50137       46.33411       81.01514
O         -3.36208       46.26859       79.80407
C         -5.55909       46.58945       82.45426
C         -6.51201       47.54484       83.17976
O         -6.27039       45.66410       81.66686
H         -5.73460       47.62910       79.90147
H         -3.89738       47.99292       82.28701
H         -5.05774       46.01036       83.25733
H         -6.99523       46.14738       81.19368
H         -5.94431       48.21211       83.86092
H         -7.06955       48.15819       82.44735
H         -7.23977       46.95847       83.78153
N         -2.76894       45.52420       81.83372
C         -1.82444       44.51433       81.35276
C         -2.52667       43.47403       80.49493
O         -2.01377       43.14528       79.43468
C         -1.08079       43.82956       82.52627
C         -0.19665       44.82187       83.29115
O         -1.98607       43.23378       83.42078
H         -2.89513       45.62939       82.85024
H         -1.04102       45.00498       80.73072
H         -0.38444       43.06139       82.11041
H         -2.12133       42.29759       83.12000
H          0.54516       45.28315       82.60389
H         -0.79689       45.62987       83.75770
H          0.35629       44.29155       84.09466
N         -3.73162       42.95391       80.86816
C         -4.50474       42.02816       80.04059
C         -4.74243       42.63617       78.66241
O         -4.43085       41.99694       77.66730
C         -5.87046       41.73259       80.72522
C         -6.80691       40.79270       79.92895
C         -6.39506       39.30927       79.89476
C         -6.60109       38.61459       81.25445
N         -6.32594       37.18025       81.16333
H         -4.14113       43.27517       81.75911
H         -3.94349       41.07396       79.93378
H         -6.40339       42.70169       80.83677
H         -5.71361       41.33301       81.74877
H         -6.89323       41.17137       78.88906
H         -7.82750       40.84480       80.36695
H         -5.35059       39.19329       79.53627
H         -7.06404       38.80080       79.16617
H         -7.66042       38.75019       81.57110
H         -5.94607       39.06449       82.02961
H         -6.52466       36.73434       82.08851
H         -6.94297       36.73774       80.44329
H         -5.32291       37.02065       80.91639
N         -5.30795       43.87190       78.54157
C         -5.65839       44.47691       77.25401
C         -4.44270       44.72308       76.37526
O         -4.61396       44.87656       75.17364
C         -6.42772       45.80567       77.45793
C         -7.72945       45.56437       78.23830
C         -8.50800       46.79138       78.60210
O         -7.96758       47.77192       79.08013
O         -9.81365       46.60403       78.81602
H         -5.51865       44.37999       79.41109
H         -6.32656       43.76200       76.72271
H         -6.68022       46.26445       76.47708
H         -5.76820       46.50594       78.00609
H         -7.53401       45.05098       79.19657
H         -8.38515       44.88817       77.64894
N         -3.18842       44.79728       76.89727
C         -2.01447       44.99961       76.07984
H         -1.11309       45.05983       76.72728
H         -1.89259       44.14379       75.38293
H         -2.10464       45.94491       75.50490
H         -3.05372       44.72321       77.90986
Ca       -11.18923       47.86880       80.03119
O         -9.68995       46.63597       82.21690
H        -10.52012       46.15312       81.97667
H         -9.96039       47.23612       82.95604
O         -9.19107       49.79311       82.26732
H         -9.07455       49.66065       83.24187
H         -8.29412       50.05793       81.94281

Ca 1.0



