%chk=holoCaM.loop1.water2.frame416.chk
%nprocshared=20
%mem=10GB
%nosave
#b3lyp/svp scf=(tight,noincore,xqc) Test 
#IOP(5/87=12) Density=Current Pop=(MK,readradii) iop(6/33=2) iop(6/42=6)

holoCaM.loop1.water2.frame416 

   0  1 
C         -1.00428       92.91215       20.65600
C         -0.47832       93.19373       19.27931
O         -1.25695       93.41594       18.36341
H         -2.11349       92.93826       20.67391
H         -0.66468       91.90494       20.98111
H         -0.61122       93.66911       21.36716
N          0.86383       93.18858       19.06887
C          1.48880       93.41874       17.77078
C          1.02467       92.36155       16.77235
O          1.09107       91.17984       17.08306
C          3.01739       93.42133       17.96177
C          3.76797       93.71766       16.70481
O          3.57586       94.75607       16.09256
O          4.69948       92.84986       16.27948
H          1.47054       93.00289       19.88435
H          1.20456       94.43153       17.40607
H          3.35308       92.44272       18.36936
H          3.27983       94.21218       18.69830
N          0.53086       92.73157       15.55223
C         -0.05674       91.81583       14.58096
C          0.82067       91.64892       13.34279
O          0.44727       90.87670       12.47297
C         -1.48475       92.32094       14.18054
C         -1.50105       93.45107       13.11152
C         -2.92301       93.94513       12.77652
C         -3.01555       94.73713       11.44899
N         -2.23296       95.97156       11.43848
H          0.58353       93.71630       15.29406
H         -0.16882       90.81700       15.05665
H         -2.03275       92.63047       15.09827
H         -2.04224       91.47038       13.73103
H         -1.07362       93.02273       12.18386
H         -0.88146       94.31153       13.41988
H         -3.32030       94.54761       13.62261
H         -3.58136       93.06132       12.64000
H         -4.08165       94.99485       11.26515
H         -2.67979       94.08529       10.61081
H         -2.36395       96.44957       10.51648
H         -2.53663       96.61232       12.20527
H         -1.22443       95.75270       11.53433
N          1.96486       92.38164       13.17059
C          2.73958       92.39361       11.92878
C          4.20262       92.02338       12.13474
O          4.94181       92.00200       11.15801
C          2.74250       93.83490       11.39733
C          1.37556       94.43158       11.27896
O          1.03233       95.47556       12.06527
O          0.57667       93.98510       10.47208
H          2.26657       93.03201       13.90839
H          2.29034       91.70740       11.17885
H          3.26618       93.90310       10.41957
H          3.30617       94.43505       12.13397
N          4.71700       91.80539       13.37173
C          6.13380       91.63963       13.63326
C          6.94148       92.87935       13.27966
O          7.96790       92.74538       12.63078
H          4.09190       91.79138       14.18729
H          6.52765       90.74009       13.11332
H          6.26323       91.47618       14.72438
N          6.55491       94.11435       13.71755
C          7.37948       95.32330       13.60666
C          7.68226       95.93013       14.97706
O          8.43237       96.89684       15.01871
C          6.75727       96.38225       12.66281
C          5.27201       96.54443       12.77863
O          4.64457       96.73937       13.95281
O          4.59776       96.42978       11.76779
H          5.64233       94.19483       14.18894
H          8.37619       95.07803       13.17953
H          6.95611       96.06994       11.61323
H          7.26255       97.36271       12.79850
N          7.17618       95.42364       16.13901
C          7.48881       95.96378       17.45125
C          7.06913       97.40679       17.57548
O          7.89680       98.23343       17.92423
H          6.55230       94.60935       16.12170
H          8.57863       95.86124       17.64757
H          6.94460       95.37286       18.21973
N          5.77825       97.76304       17.33384
C          5.25417       99.12864       17.42225
C          3.73468       99.06881       17.44103
O          3.14411       98.40094       16.60282
C          5.71254      100.07902       16.27494
C          7.20524      100.43430       16.25074
O          5.30334       99.60939       15.01823
H          5.12273       96.99596       17.11604
H          5.57947       99.57967       18.38611
H          5.19537      101.04808       16.45737
H          5.86397       98.82024       14.80457
H          7.82602       99.56596       15.95676
H          7.38538      101.22729       15.49500
H          7.52745      100.82022       17.24204
N          3.03972       99.76204       18.38373
C          1.60107       99.65080       18.57463
C          0.92950      100.91499       18.04499
O          1.29630      102.01112       18.44206
C          1.31716       99.37183       20.08218
C          2.12447       98.15481       20.62769
C         -0.18110       99.19092       20.36761
C          1.84176       96.80932       19.94434
H          3.55586      100.39338       19.01592
H          1.19994       98.79037       18.00009
H          1.65401      100.26045       20.66089
H          1.91765       98.04378       21.71441
H          3.21157       98.36202       20.52806
H         -0.34873       99.05141       21.45688
H         -0.75870      100.08073       20.04395
H         -0.57516       98.30198       19.84586
H          0.78399       96.50215       20.06844
H          2.09185       96.84461       18.86450
H          2.47619       96.02565       20.41055
N         -0.08227      100.80906       17.13447
C         -0.78065      101.92433       16.50216
C         -2.13620      102.12594       17.16524
O         -2.43945      101.44483       18.13140
C         -0.96574      101.63782       14.97589
C          0.35769      101.47029       14.21828
O         -1.80709      100.52769       14.76121
H         -0.41722       99.87319       16.90096
H         -0.20720      102.86785       16.62888
H         -1.46501      102.50807       14.50251
H         -1.26714       99.69899       14.79231
H          0.97353      102.38759       14.31091
H          0.92791      100.60209       14.60764
H          0.14264      101.29441       13.14086
N         -3.00306      103.07051       16.69852
C         -4.35294      103.25673       17.24057
C         -5.29781      102.09835       16.89943
O         -6.41384      102.10321       17.40724
C         -4.96081      104.58385       16.73046
C         -4.15426      105.78595       17.25325
O         -4.99735      104.56823       15.32385
H         -2.68644      103.68453       15.93595
H         -4.27882      103.32310       18.34969
H         -5.99772      104.67806       17.12617
H         -5.27504      105.46971       15.01730
H         -4.62570      106.73372       16.91943
H         -4.14356      105.78131       18.36450
H         -3.10775      105.76535       16.88576
N         -4.93445      101.06794       16.08184
C         -5.76747       99.90046       15.80577
C         -5.23391       98.67052       16.53697
O         -5.86431       97.62903       16.47893
C         -5.84048       99.66182       14.28317
C         -6.57260      100.81043       13.57351
C         -6.56075      100.63690       12.04952
C         -7.38976      101.73983       11.37472
N         -7.32532      101.63474        9.91756
H         -3.99644      101.07088       15.66318
H         -6.79759      100.04778       16.20052
H         -6.39141       98.71915       14.07110
H         -4.80640       99.55624       13.88399
H         -6.08901      101.78143       13.81697
H         -7.62259      100.83299       13.94006
H         -6.98646       99.64723       11.77370
H         -5.50882      100.68554       11.69070
H         -7.01132      102.73993       11.68223
H         -8.44947      101.65001       11.70405
H         -7.93669      102.37080        9.49541
H         -6.34264      101.78717        9.59318
H         -7.66021      100.69500        9.60413
N         -4.10195       98.74955       17.29589
C         -3.57702       97.68807       18.13786
C         -3.55608       98.14281       19.59997
O         -3.11954       97.36266       20.43798
C         -2.14044       97.37431       17.67822
C         -2.07594       96.97366       16.20033
C         -0.65760       96.83473       15.73706
O          0.19598       97.87080       15.77219
O         -0.27672       95.78167       15.28175
H         -3.56384       99.61227       17.30267
H         -4.19996       96.77164       18.06321
H         -1.69552       96.56868       18.30398
H         -1.54144       98.29021       17.81951
H         -2.54965       97.74775       15.56355
H         -2.62634       96.01708       16.06023
N         -3.99178       99.38264       19.98599
C         -3.93590       99.87440       21.34727
H         -4.95955      100.13864       21.68579
H         -3.50489       99.13362       22.05113
H         -3.30741      100.79080       21.37636
H         -4.37975      100.04465       19.29957
Ca         2.46187       96.30661       13.61191
O          0.29479       98.21240       12.37227
H         -0.58977       98.42939       12.75835
H          0.46939       98.93538       11.71927
O          3.00157       99.30387       13.02067
H          3.21980      100.26083       12.89467
H          2.87721       99.20356       13.99756

Ca 1.0



