%chk=holoCaM.loop3.water2.frame258.chk
%nprocshared=20
%mem=10GB
%nosave
#b3lyp/svp scf=(tight,noincore,xqc) Test 
#IOP(5/87=12) Density=Current Pop=(MK,readradii) iop(6/33=2) iop(6/42=6)

holoCaM.loop3.water2.frame258 

   0  1 
C         44.89488      -10.21889       72.42748
C         43.83815      -10.16909       71.37058
O         43.46510      -11.21543       70.85676
H         45.77258       -9.62146       72.10881
H         44.48592       -9.80792       73.37444
H         45.21482      -11.26850       72.60597
N         43.27663       -8.97900       71.01226
C         42.18938       -8.91968       70.04969
C         42.68794       -9.33354       68.67215
O         43.52680       -8.64762       68.10396
C         41.54901       -7.51649       70.00316
C         40.21061       -7.54335       69.31478
O         39.69414       -8.70849       68.87616
O         39.55326       -6.52248       69.23088
H         43.58808       -8.11699       71.48659
H         41.40846       -9.61968       70.42733
H         42.23660       -6.78671       69.52175
H         41.35454       -7.17018       71.04089
N         42.23851      -10.48202       68.10124
C         42.71803      -10.98919       66.81982
C         42.36750      -10.09218       65.64361
O         43.19587       -9.99441       64.74842
C         42.21694      -12.42568       66.56852
C         42.87921      -13.41347       67.54749
C         42.45911      -14.85792       67.26231
C         43.27770      -15.84168       68.11065
N         42.89505      -17.22308       67.82316
H         41.56989      -11.05054       68.63766
H         43.82983      -11.05300       66.85352
H         42.51858      -12.73232       65.54232
H         41.10842      -12.47118       66.63192
H         42.63562      -13.15977       68.60217
H         43.98147      -13.33589       67.41364
H         42.64327      -15.08806       66.19038
H         41.37448      -14.97726       67.47378
H         43.12683      -15.63186       69.19287
H         44.35889      -15.71134       67.87625
H         43.03172      -17.43073       66.80681
H         43.49861      -17.86900       68.38155
H         41.89473      -17.37854       68.08475
N         41.18849       -9.40694       65.56201
C         40.86190       -8.54164       64.42332
C         40.86650       -7.06109       64.79253
O         40.63216       -6.24737       63.90888
C         39.55046       -8.99032       63.73565
C         38.30150       -8.85107       64.55762
O         37.22570       -9.17087       64.07855
O         38.34557       -8.36638       65.80622
H         40.51940       -9.48064       66.34177
H         41.64392       -8.63651       63.63902
H         39.65543      -10.05472       63.43370
H         39.41056       -8.38661       62.81218
N         41.20178       -6.62377       66.04361
C         41.37281       -5.21445       66.36340
C         40.10341       -4.38801       66.34993
O         40.22168       -3.18028       66.50497
H         41.44476       -7.30176       66.77730
H         42.09662       -4.78108       65.63830
H         41.81785       -5.11753       67.37731
N         38.86105       -4.93264       66.18741
C         37.65151       -4.11060       66.12560
C         37.35145       -3.36373       67.43027
O         36.43708       -2.55197       67.42881
C         36.43541       -4.94896       65.65945
C         35.89444       -5.89431       66.70359
N         34.58472       -5.87338       67.04328
O         36.63681       -6.69726       67.23674
H         38.77787       -5.94647       66.05330
H         37.82886       -3.36025       65.32321
H         36.73697       -5.53429       64.76272
H         35.62042       -4.26345       65.34350
H         33.93002       -5.21393       66.59834
H         34.21752       -6.53453       67.74408
N         38.06918       -3.58443       68.57474
C         37.86656       -2.86498       69.82314
C         37.44523       -3.76597       70.97019
O         37.32126       -3.25566       72.07472
H         38.81841       -4.28401       68.58011
H         37.09409       -2.07302       69.71594
H         38.82394       -2.36826       70.08860
N         37.13789       -5.08410       70.78622
C         36.56322       -5.93257       71.82778
C         37.29167       -7.26013       71.93464
O         37.48434       -7.91411       70.92145
C         35.08692       -6.18149       71.46562
C         34.31593       -4.88015       71.48324
C         33.78891       -4.34380       70.29852
C         34.13289       -4.18102       72.68950
C         33.09988       -3.12830       70.31497
C         33.43907       -2.96813       72.70628
C         32.92187       -2.43618       71.51673
O         32.25526       -1.26447       71.51638
H         37.19049       -5.48482       69.83862
H         36.58332       -5.43748       72.82272
H         34.61536       -6.88276       72.18822
H         35.04333       -6.65214       70.45754
H         33.92132       -4.85616       69.36034
H         34.52695       -4.57464       73.61800
H         32.70690       -2.72319       69.39099
H         33.30710       -2.44247       73.64347
H         32.11127       -0.75474       72.32639
N         37.62159       -7.77352       73.15609
C         38.17815       -9.11232       73.33925
C         37.04183      -10.03384       73.75483
O         36.32136       -9.71113       74.69000
C         39.31252       -9.13090       74.40701
C         40.40598       -8.07879       74.09724
C         39.92461      -10.55040       74.48521
C         41.46944       -7.97441       75.19620
H         37.34905       -7.24733       74.00097
H         38.61744       -9.48061       72.38434
H         38.86418       -8.87445       75.39291
H         39.93156       -7.07733       74.02165
H         40.89763       -8.30753       73.12805
H         39.15123      -11.30914       74.71926
H         40.39931      -10.82239       73.51638
H         40.68294      -10.62961       75.28771
H         40.99108       -7.74580       76.17316
H         42.05997       -8.90777       75.28819
H         42.17841       -7.15659       74.95137
N         36.84831      -11.21850       73.11187
C         35.76886      -12.15057       73.41436
C         36.32175      -13.40225       74.07119
O         37.52042      -13.48563       74.28484
C         35.01142      -12.47733       72.11570
O         35.86583      -13.11847       71.20327
H         37.52568      -11.49772       72.39300
H         35.05059      -11.69706       74.13157
H         34.61657      -11.52360       71.69346
H         34.14290      -13.13824       72.31628
H         35.68976      -12.73022       70.30712
N         35.49104      -14.40788       74.46133
C         35.96081      -15.60656       75.14996
C         36.91376      -16.41774       74.29062
O         38.02782      -16.67477       74.72430
C         34.77262      -16.48198       75.56233
H         34.47886      -14.29810       74.29368
H         36.48020      -15.30179       76.08671
H         34.09680      -15.90699       76.23052
H         34.19376      -16.81634       74.67540
H         35.13292      -17.37567       76.11554
N         36.53269      -16.86313       73.06019
C         37.37761      -17.69286       72.20454
C         38.71276      -17.03466       71.91672
O         39.72796      -17.71224       71.99938
C         36.65446      -18.01869       70.89389
H         35.59399      -16.60230       72.71992
H         37.56791      -18.66515       72.71229
H         35.70371      -18.55121       71.11411
H         36.42664      -17.09463       70.32209
H         37.28374      -18.68792       70.26772
N         38.79382      -15.70708       71.61920
C         40.06494      -15.02307       71.38181
C         40.98323      -15.20291       72.58123
O         42.07378      -15.73193       72.41458
C         39.83922      -13.52749       71.05022
C         39.05098      -13.37946       69.73216
C         38.82988      -11.95107       69.33543
O         38.15634      -11.11539       70.14220
O         39.21110      -11.55369       68.24773
H         37.91765      -15.16405       71.60072
H         40.56517      -15.48025       70.49818
H         40.82674      -13.02946       70.92684
H         39.30156      -13.02866       71.88617
H         38.05514      -13.85392       69.82149
H         39.60725      -13.89522       68.92003
N         40.58402      -14.84657       73.83101
C         41.39173      -15.09760       75.00517
H         42.35414      -14.55024       74.93501
H         40.85027      -14.76292       75.91615
H         41.58866      -16.18791       75.10064
H         39.66145      -14.42050       73.96106
Ca        37.53122       -8.99760       68.31788
O         34.84253       -9.62459       69.42865
H         34.87277       -9.33461       70.37469
H         34.17825       -9.02535       69.00458
O         36.21248      -11.11895       66.79371
H         36.22123      -11.15540       65.80476
H         35.29666      -11.39643       67.04686

Ca 1.0



