%chk=holoCaM-CaMKII.loop2.water2.frame199.chk
%nprocshared=20
%mem=10GB
%nosave
#b3lyp/svp scf=(tight,noincore,xqc) Test 
#IOP(5/87=12) Density=Current Pop=(MK,readradii) iop(6/33=2) iop(6/42=6)

holoCaM-CaMKII.loop2.water2.frame199 

   -2  1 
C          5.79430       73.56301       31.86565
C          5.16310       73.99676       33.15374
O          4.13172       73.45924       33.53235
H          6.81407       73.17055       32.07472
H          5.20175       72.75579       31.38602
H          5.87311       74.42616       31.17477
N          5.77851       74.93810       33.91731
C          5.32847       75.26653       35.26002
C          4.08423       76.13674       35.30196
O          3.93634       77.01977       34.46962
C          6.46899       75.91673       36.05044
C          6.14340       75.91612       37.50521
O          6.27483       76.92665       38.17117
O          5.74552       74.73860       38.04286
H          6.67969       75.31768       33.58502
H          5.12176       74.29702       35.76209
H          6.74194       76.92493       35.66736
H          7.35919       75.26244       35.94784
N          3.18228       75.97132       36.31554
C          1.97407       76.76739       36.49204
C          1.90426       77.46641       37.85392
O          0.93344       78.17728       38.07630
C          0.77185       75.82710       36.35802
H          3.35063       75.22167       36.99633
H          1.90651       77.54794       35.70428
H          0.78796       75.33268       35.36404
H          0.81290       75.03916       37.14358
H         -0.18361       76.38275       36.46175
N          2.84319       77.27934       38.82977
C          2.72701       77.82530       40.18008
C          3.95348       78.64731       40.57706
O          3.77770       79.81120       40.91163
C          2.35641       76.69172       41.17627
C          3.03525       75.35940       40.96485
O          2.36845       74.38052       40.66789
O          4.35608       75.21704       41.10998
H          3.64126       76.65879       38.65176
H          1.87028       78.53387       40.25355
H          1.27103       76.49261       41.03159
H          2.48297       77.04024       42.22455
N          5.21114       78.12433       40.58854
C          6.39572       78.85295       41.03522
C          7.02834       78.21339       42.26332
O          7.99935       78.75615       42.77029
H          5.34201       77.15632       40.28736
H          6.14183       79.90111       41.30140
H          7.13834       78.88590       40.20881
N          6.51011       77.07875       42.81608
C          6.96115       76.45375       44.05438
C          8.38541       75.89287       44.04074
O          8.78046       75.35157       45.06463
C          5.93934       75.36404       44.47132
C          5.83576       74.17257       43.55487
N          4.94600       73.20108       43.84556
O          6.53682       74.07234       42.55994
H          5.67911       76.67071       42.38637
H          6.91997       77.22648       44.85103
H          4.93157       75.83422       44.52410
H          6.19054       74.98839       45.48420
H          4.33202       73.26871       44.66789
H          4.86892       72.37464       43.25333
N          9.22041       75.97683       42.96305
C         10.60608       75.52870       43.01271
C         10.81848       74.13126       42.47034
O         11.95578       73.68295       42.50218
H          8.90791       76.43731       42.10101
H         10.98497       75.56614       44.05793
H         11.23476       76.23801       42.43283
N          9.80040       73.37712       41.96131
C          9.99705       72.02012       41.45097
C          8.99920       71.65977       40.35868
O          8.00079       72.33765       40.18438
C          9.83324       70.97562       42.59748
C         10.98099       71.00480       43.60273
O          8.63072       71.18092       43.30245
H          8.86013       73.78376       41.92159
H         10.99505       71.95268       40.96328
H          9.84226       69.94670       42.17213
H          7.87920       71.14654       42.65660
H         11.94728       70.82895       43.08425
H         11.01380       71.96731       44.15048
H         10.83336       70.19558       44.35002
N          9.20849       70.53672       39.61374
C          8.20836       69.94538       38.73365
C          7.22996       69.16706       39.58170
O          7.63493       68.44416       40.48208
C          8.87847       69.06664       37.62714
C          9.53335       70.01365       36.58583
C          7.86272       68.12528       36.93977
C         10.30099       69.30279       35.47104
H         10.06671       69.99236       39.79108
H          7.63189       70.73372       38.20340
H          9.64698       68.41308       38.09603
H         10.24331       70.69210       37.10449
H          8.74311       70.63986       36.11209
H          7.43293       67.41881       37.67900
H          7.04248       68.69779       36.45886
H          8.35144       67.47992       36.18429
H          9.63571       68.66443       34.85518
H         10.73901       70.06373       34.79114
H         11.11871       68.68821       35.89964
N          5.90937       69.21658       39.26501
C          4.87260       68.47894       39.96062
C          4.40118       67.32178       39.09227
O          4.88587       67.19590       37.98315
C          3.73940       69.45822       40.30224
C          4.17854       70.46262       41.34107
O          5.06903       71.47068       41.15221
O          3.68649       70.36185       42.45199
H          5.62207       69.76159       38.43993
H          5.26950       68.01620       40.89223
H          2.91048       68.86348       40.74542
H          3.34151       69.96269       39.39477
N          3.52384       66.37887       39.54993
C          3.14661       65.22235       38.73508
C          2.36062       65.63432       37.49087
O          2.77838       65.23117       36.41425
C          2.39771       64.13610       39.54749
C          2.07169       62.93389       38.68178
C          0.73309       62.58712       38.42459
C          3.09886       62.15866       38.10995
C          0.42998       61.49379       37.60644
C          2.79026       61.06512       37.29452
C          1.45721       60.73417       37.04134
H          3.16786       66.45257       40.51501
H          4.08717       64.72572       38.40509
H          1.47034       64.53502       39.98674
H          3.02966       63.80332       40.39901
H         -0.07692       63.16820       38.84701
H          4.13848       62.39838       38.29194
H         -0.60248       61.23718       37.40732
H          3.58530       60.47524       36.85625
H          1.22038       59.88960       36.40680
N          1.22863       66.41255       37.52235
C          0.47745       66.80651       36.33132
C          1.36578       67.40576       35.25863
O          1.27720       67.02562       34.10045
C         -0.49100       67.88150       36.85330
C         -0.74243       67.41712       38.26484
C          0.65820       67.01916       38.71124
H         -0.08406       65.92532       35.94803
H          0.02929       68.86216       36.95016
H         -1.39502       68.03055       36.22542
H         -1.24390       68.15385       38.92782
H         -1.36665       66.49585       38.21029
H          1.27597       67.90222       38.98747
H          0.54605       66.34885       39.57560
N          2.28056       68.34191       35.62019
C          3.20500       69.01163       34.71403
C          4.08924       67.99917       34.00931
O          4.17584       68.02887       32.79034
C          4.07076       70.00856       35.51299
C          3.20789       71.09973       36.18309
C          4.00348       72.02792       37.03670
O          3.35423       72.95738       37.75881
O          5.21737       71.93440       37.11448
H          2.33490       68.56210       36.62467
H          2.63845       69.59464       33.95406
H          4.80497       70.49756       34.83532
H          4.63228       69.45284       36.29512
H          2.45377       70.65412       36.85917
H          2.67225       71.69080       35.41087
N          4.75057       67.05219       34.72698
C          5.60889       66.03734       34.15764
H          6.61059       66.10205       34.63229
H          5.18015       65.03547       34.37380
H          5.72461       66.14953       33.06090
H          4.61503       67.02594       35.73758
Ca         5.44117       73.12706       39.62797
O          8.13015       73.46186       37.66869
H          8.95895       73.61491       37.15381
H          7.61007       72.82271       37.12286
O          8.71952       75.33860       39.85922
H          9.62519       75.73596       39.85439
H          8.18790       75.95392       39.30363

Ca 1.0



