%chk=holoCaM-CaMKII.loop2.water2.frame272.chk
%nprocshared=20
%mem=10GB
%nosave
#b3lyp/svp scf=(tight,noincore,xqc) Test 
#IOP(5/87=12) Density=Current Pop=(MK,readradii) iop(6/33=2) iop(6/42=6)

holoCaM-CaMKII.loop2.water2.frame272 

   -2  1 
C         54.05005       46.25716       58.95793
C         54.73286       47.59474       58.92689
O         54.99966       48.16365       59.97335
H         53.09085       46.30587       58.40273
H         54.70718       45.50254       58.47161
H         53.85538       45.92856       60.00047
N         55.08433       48.13532       57.73182
C         55.88036       49.34927       57.59053
C         55.14822       50.60392       58.06410
O         54.05510       50.86045       57.57855
C         56.25998       49.52952       56.10277
C         57.34184       50.54846       55.90786
O         57.71673       50.83238       54.78243
O         57.95454       51.09818       56.96949
H         54.84230       47.60140       56.88175
H         56.82127       49.19812       58.16410
H         55.35529       49.80956       55.52014
H         56.65255       48.57640       55.69057
N         55.73044       51.46893       58.95167
C         55.12988       52.73951       59.35736
C         55.98318       53.96226       58.99455
O         55.48568       55.06570       59.17370
C         54.90389       52.72668       60.87390
H         56.64752       51.22703       59.34242
H         54.14514       52.86820       58.85864
H         55.87670       52.63182       61.40594
H         54.41105       53.66534       61.20761
H         54.25836       51.87062       61.16129
N         57.27880       53.86751       58.56117
C         58.15174       55.02894       58.36639
C         58.91540       55.03534       57.03377
O         59.67223       55.97212       56.81699
C         59.10018       55.13576       59.58126
C         59.85221       53.87085       59.88637
O         59.66628       53.25188       61.06780
O         60.62729       53.39673       59.07816
H         57.71723       52.94383       58.49603
H         57.55822       55.96978       58.36892
H         58.47746       55.37003       60.47212
H         59.81172       55.97794       59.44240
N         58.74698       54.08001       56.07444
C         59.38956       54.12963       54.76387
C         60.90083       53.93572       54.73844
O         61.45074       54.00634       53.64783
H         58.06230       53.33462       56.22786
H         59.14239       55.10246       54.28596
H         58.95764       53.32730       54.12651
N         61.64954       53.68619       55.85362
C         63.10791       53.53277       55.81468
C         63.59958       52.23718       55.14379
O         64.80421       52.02462       55.11525
C         63.72831       53.71717       57.22133
C         63.46305       52.65150       58.24946
N         64.05580       52.75783       59.46057
O         62.74176       51.69737       58.00618
H         61.18131       53.66618       56.76404
H         63.51913       54.39021       55.23644
H         63.38822       54.69155       57.63632
H         64.83172       53.77292       57.09958
H         64.66458       53.55901       59.67989
H         63.93005       52.03885       60.17928
N         62.75010       51.35352       54.54220
C         63.18507       50.17365       53.80958
C         63.51651       48.96038       54.65864
O         63.77464       47.92536       54.06056
H         61.75005       51.56856       54.48707
H         64.02727       50.43141       53.13013
H         62.33763       49.85251       53.16548
N         63.52423       48.97635       56.02482
C         63.78039       47.77849       56.82988
C         62.67546       47.53256       57.84433
O         61.89521       48.43018       58.12786
C         65.13807       47.90357       57.56164
C         66.29955       47.88607       56.56706
O         65.19649       49.09430       58.30735
H         63.35987       49.86205       56.51579
H         63.81278       46.87594       56.18102
H         65.29583       47.02830       58.23403
H         64.62931       48.96702       59.11143
H         67.26367       47.95751       57.11335
H         66.29321       46.93342       55.99424
H         66.22967       48.73591       55.85623
N         62.59325       46.31958       58.46923
C         61.66651       46.04131       59.55939
C         62.34080       46.44820       60.85529
O         63.30959       45.81409       61.25062
C         61.22221       44.53611       59.54513
C         60.32610       44.26541       58.30664
C         60.48745       44.13166       60.83902
C         59.92192       42.79733       58.12799
H         63.28267       45.59330       58.22183
H         60.75676       46.66084       59.44384
H         62.13670       43.90410       59.48878
H         60.86902       44.57220       57.38817
H         59.39905       44.87694       58.38139
H         59.54748       44.70162       60.95047
H         60.25255       43.04905       60.85165
H         61.13139       44.29253       61.72495
H         60.82346       42.15822       58.02401
H         59.30443       42.43016       58.97280
H         59.30488       42.69528       57.21040
N         61.88242       47.52389       61.56348
C         62.43567       47.91236       62.85733
C         62.05198       46.89320       63.92268
O         61.32038       45.96499       63.62146
C         61.96568       49.33188       63.26297
C         62.65880       50.39150       62.43786
O         62.34710       50.63692       61.14969
O         63.54209       51.05614       62.95580
H         61.11078       48.08028       61.17049
H         63.54683       47.93699       62.79117
H         62.29204       49.50517       64.30909
H         60.85837       49.44041       63.24464
N         62.53211       46.98538       65.19575
C         62.20357       46.01741       66.23919
C         60.69505       45.99766       66.53062
O         60.13293       44.91705       66.44199
C         63.06278       46.25907       67.50503
C         62.85384       45.21710       68.57853
C         63.25724       43.88554       68.37261
C         62.27755       45.57525       69.80998
C         63.09204       42.93374       69.38467
C         62.10594       44.61844       70.81481
C         62.51609       43.29975       70.60409
H         63.18237       47.75384       65.42264
H         62.50078       45.00860       65.87036
H         62.87717       47.25647       67.92397
H         64.13963       46.25023       67.22811
H         63.71451       43.58752       67.43756
H         61.95808       46.59376       69.99241
H         63.41508       41.91281       69.22609
H         61.65913       44.90104       71.75927
H         62.38997       42.56266       71.38680
N         59.95365       47.11433       66.85292
C         58.50880       47.09932       67.09273
C         57.71453       46.38250       66.01910
O         56.89687       45.53209       66.34310
C         58.12464       48.58734       67.09313
C         59.35397       49.21830       67.68454
C         60.46398       48.46919       66.95560
H         58.31859       46.64602       68.09127
H         58.05866       48.97595       66.05077
H         57.16788       48.81559       67.60907
H         59.41320       50.32407       67.60199
H         59.38472       48.93621       68.76276
H         60.63517       48.86318       65.93220
H         61.36422       48.58791       67.57280
N         57.92643       46.67646       64.70831
C         57.20973       46.05016       63.60168
C         57.38202       44.54501       63.64252
O         56.39056       43.83042       63.61013
C         57.73238       46.58517       62.25905
C         57.47218       48.08727       62.07175
C         58.09230       48.58759       60.80625
O         58.17219       49.90402       60.60449
O         58.68079       47.83730       60.04542
H         58.66513       47.36417       64.49517
H         56.12492       46.29172       63.66200
H         57.24035       46.04195       61.42164
H         58.82952       46.40864       62.21185
H         57.94999       48.65758       62.89414
H         56.38779       48.31474       62.08609
N         58.62052       43.99592       63.74446
C         58.84245       42.57081       63.80514
H         59.92600       42.36759       63.94649
H         58.28638       42.13703       64.66282
H         58.50939       42.09785       62.85838
H         59.43505       44.61203       63.81060
Ca        60.30085       50.42667       60.28913
O         58.97890       47.88607       56.99505
H         58.18880       47.30259       57.11094
H         59.71552       47.37603       57.40960
O         60.59418       50.32633       56.43184
H         60.35905       51.27695       56.28988
H         60.37481       49.88316       55.57388

Ca 1.0



