%chk=holoCaM.loop4.water3.frame456.chk
%nprocshared=20
%mem=10GB
%nosave
#b3lyp/svp scf=(tight,noincore,xqc) Test 
#IOP(5/87=12) Density=Current Pop=(MK,readradii) iop(6/33=2) iop(6/42=6)

holoCaM.loop4.water3.frame456 

   -3  1 
C         30.52153       57.88140       72.45641
C         30.05891       57.94390       73.88206
O         28.94929       58.40086       74.11727
H         31.53085       57.42576       72.37602
H         29.81297       57.25419       71.87281
H         30.54855       58.90035       72.02005
N         30.83959       57.45234       74.88532
C         30.39666       57.35135       76.26893
C         31.41829       57.98481       77.21037
O         32.59169       57.64545       77.11522
C         30.21825       55.85235       76.58274
C         29.43658       55.59151       77.83605
O         29.26058       54.44249       78.20679
O         28.85241       56.60025       78.50805
H         31.75678       57.04398       74.64366
H         29.40275       57.83771       76.39065
H         31.21446       55.36124       76.63468
H         29.63901       55.37333       75.76341
N         31.04005       58.86655       78.18271
C         31.96900       59.48231       79.13625
C         31.79319       58.88564       80.54184
O         32.60016       59.18716       81.40338
C         31.72830       61.04060       79.16178
C         31.86354       61.64971       77.74283
C         32.64970       61.79507       80.15030
C         31.38422       63.10782       77.65489
H         30.03611       59.08345       78.27536
H         33.01825       59.26934       78.83214
H         30.67867       61.19862       79.49816
H         31.23076       61.07332       77.04214
H         32.91376       61.57529       77.38851
H         32.42625       62.87846       80.17117
H         32.48766       61.48240       81.19733
H         33.71680       61.65293       79.87836
H         31.42880       63.45258       76.60131
H         30.33223       63.18945       78.00474
H         32.01602       63.79539       78.25031
N         30.73719       58.07455       80.86186
C         30.37665       57.80888       82.25476
C         29.79576       56.42796       82.53587
O         29.55041       56.15772       83.70759
C         29.40069       58.91433       82.71387
C         28.12704       59.04375       81.90142
O         27.85637       58.24220       80.84545
O         27.33318       59.91916       82.19917
H         30.04915       57.87236       80.14191
H         31.28312       57.88019       82.89497
H         29.93499       59.88778       82.64714
H         29.13692       58.75246       83.78161
N         29.54798       55.49657       81.57445
C         29.03086       54.17193       81.89149
C         27.64557       54.15685       82.52714
O         27.24442       53.08716       82.96332
H         29.77803       55.69712       80.59507
H         29.74472       53.69498       82.59922
H         28.99907       53.54474       80.97518
N         26.85262       55.26779       82.62127
C         25.56121       55.26018       83.31483
C         24.39573       54.87645       82.40727
O         23.26632       54.85447       82.87771
C         25.32697       56.61503       84.02735
C         25.04114       57.78657       83.12596
O         24.94478       57.64757       81.92028
O         24.84758       59.00404       83.66638
H         27.17345       56.15119       82.20515
H         25.60557       54.50896       84.13392
H         26.22387       56.84646       84.64282
H         24.45748       56.51780       84.71101
N         24.59320       54.54670       81.10167
C         23.53022       54.17147       80.19072
C         22.60808       55.32242       79.87300
O         21.40410       55.14184       79.96043
H         25.54778       54.52505       80.72416
H         22.96871       53.29710       80.58763
H         23.98907       53.86053       79.22851
N         23.11498       56.49815       79.39630
C         22.30745       57.59063       78.85652
C         23.22221       58.54503       78.03542
O         23.97331       59.36858       78.88859
C         21.51501       58.42700       79.90889
C         20.40811       57.69502       80.67523
C         19.56069       58.66282       81.46330
N         20.09763       59.41749       82.44996
O         18.36993       58.76449       81.20675
H         24.13740       56.55699       79.29216
H         21.59590       57.13698       78.13128
H         21.00937       59.24402       79.34737
H         22.21760       58.89292       80.63252
H         20.84285       56.96238       81.38340
H         19.75366       57.17314       79.94178
H         21.09679       59.34444       82.68861
H         19.50884       60.07735       82.98003
N         22.40825       59.40219       77.16369
C         23.21426       60.22090       76.23865
C         23.10397       61.65983       76.70753
O         21.99856       62.16504       76.84518
C         22.75850       60.05415       74.75520
C         23.58303       60.95704       73.81881
C         22.92382       58.59797       74.27563
H         21.65196       58.86686       76.68188
H         24.28473       59.90957       76.26216
H         21.68803       60.34250       74.66378
H         23.45751       62.02516       74.08498
H         24.66163       60.69514       73.87484
H         23.24665       60.83472       72.76747
H         23.98693       58.28186       74.34528
H         22.31240       57.88663       74.86492
H         22.59731       58.50422       73.21812
N         24.23040       62.38611       76.94132
C         24.23987       63.77557       77.38517
C         24.49846       64.67665       76.18972
O         24.69425       64.17667       75.09625
C         25.33246       63.90001       78.48104
C         25.53265       65.26755       79.08306
N         24.53738       65.88652       79.75651
O         26.62111       65.81433       78.98087
H         25.13808       61.95137       76.72947
H         23.24653       64.05790       77.79739
H         26.30147       63.56944       78.04457
H         25.08170       63.20686       79.30676
H         23.61662       65.43960       79.86541
H         24.69320       66.81676       80.17273
N         24.45580       66.02866       76.31182
C         24.76261       66.94787       75.21823
C         26.21080       66.79426       74.74908
O         26.41767       66.68689       73.54758
C         24.31998       68.39620       75.56652
C         24.69904       68.91038       76.93950
C         23.69444       69.07073       77.91561
C         26.01920       69.24010       77.26713
C         24.01020       69.52567       79.19583
C         26.33608       69.69866       78.55330
C         25.33036       69.83916       79.52198
O         25.61810       70.27194       80.76588
H         24.18024       66.41689       77.22144
H         24.12648       66.69345       74.33866
H         23.20759       68.36241       75.53311
H         24.62693       69.11074       74.77313
H         22.66251       68.82828       77.69260
H         26.79626       69.14645       76.52587
H         23.22503       69.63186       79.93477
H         27.36094       69.94703       78.79562
H         26.51917       70.49581       81.03918
N         27.25363       66.68950       75.62583
C         28.64659       66.47524       75.20467
C         28.89585       65.11805       74.52761
O         30.03220       64.87473       74.14374
C         29.61189       66.57293       76.41697
C         29.62967       67.94562       77.10942
C         30.04606       69.04887       76.17529
O         29.21689       70.08241       75.93681
O         31.13974       69.01704       75.63358
H         27.04547       66.76633       76.62973
H         28.92384       67.26995       74.47811
H         30.65260       66.36958       76.07938
H         29.34362       65.79355       77.16427
H         30.35139       67.90973       77.95302
H         28.63525       68.16419       77.53757
N         27.91478       64.18878       74.34483
C         28.13679       62.86439       73.77612
C         27.45837       62.76313       72.42320
O         28.14126       62.50997       71.43997
C         27.59939       61.78892       74.74308
C         28.28160       61.86934       76.11776
C         27.76467       60.86439       77.11180
O         28.24186       60.87532       78.36983
O         26.90554       60.05434       76.80689
H         26.96393       64.40306       74.64012
H         29.22309       62.67573       73.62287
H         27.76529       60.78165       74.30435
H         26.50810       61.93227       74.87978
H         28.11743       62.87773       76.55170
H         29.36804       61.71315       75.98182
N         26.11836       62.95859       72.28941
C         25.44650       62.88479       71.01220
H         24.36235       63.09215       71.14478
H         25.86866       63.64126       70.31727
H         25.56402       61.86942       70.57892
H         25.55114       63.17403       73.11505
Ca        25.97317       58.49497       79.59043
O         24.98034       61.33125       81.05132
H         25.72682       61.13241       80.43548
H         24.57401       60.45078       81.24765
O         26.16229       55.41233       78.16990
H         25.80884       54.57950       77.76902
H         26.74602       55.10592       78.90577
O         26.32482       57.42208       76.07779
H         27.02300       56.86733       75.64967
H         25.48833       56.90469       75.96830

Ca 1.0



