%chk=holoCaM.loop3.water2.frame475.chk
%nprocshared=20
%mem=10GB
%nosave
#b3lyp/svp scf=(tight,noincore,xqc) Test 
#IOP(5/87=12) Density=Current Pop=(MK,readradii) iop(6/33=2) iop(6/42=6)

holoCaM.loop3.water2.frame475 

   0  1 
C         26.21828       47.63848       78.98287
C         26.65388       47.08575       80.30555
O         27.64802       46.37412       80.34724
H         25.31104       48.26955       79.08750
H         27.03396       48.26034       78.55740
H         25.99437       46.80268       78.28845
N         25.96759       47.38757       81.44331
C         26.38665       46.90671       82.74991
C         26.27645       45.38765       82.81062
O         25.20122       44.85673       82.56988
C         25.56268       47.58114       83.87146
C         26.20681       47.39024       85.21798
O         27.35235       46.69731       85.30319
O         25.76105       47.95497       86.19792
H         25.15005       48.01370       81.37971
H         27.44316       47.23328       82.88759
H         24.51295       47.21988       83.86610
H         25.55380       48.67770       83.68994
N         27.36992       44.62945       83.10435
C         27.38352       43.16720       83.06678
C         26.37931       42.56758       84.03912
O         25.56696       41.75551       83.61934
C         28.79854       42.65548       83.39825
C         29.06699       41.20480       82.98171
C         30.47711       40.80051       83.44016
C         30.90135       39.43631       82.88994
N         32.21844       39.06200       83.40764
H         28.24951       45.12252       83.32440
H         27.14888       42.85403       82.02497
H         28.96219       42.76156       84.48087
H         29.54487       43.27261       82.85402
H         28.99741       41.14574       81.87303
H         28.32117       40.51182       83.42734
H         30.49587       40.78162       84.55268
H         31.21740       41.54991       83.08439
H         30.94488       39.49434       81.77884
H         30.16000       38.65891       83.17564
H         32.92577       39.79739       83.17556
H         32.16981       38.94011       84.44560
H         32.51599       38.15828       82.97493
N         26.36597       42.94902       85.35215
C         25.43932       42.39706       86.34081
C         24.29935       43.34711       86.66587
O         23.42115       42.95814       87.42404
C         26.19765       41.97718       87.62430
C         26.82993       43.10813       88.40623
O         26.73710       44.26993       88.04361
O         27.49418       42.82756       89.54262
H         27.01443       43.69465       85.64556
H         24.95663       41.48544       85.92585
H         26.99158       41.25104       87.34985
H         25.48635       41.46405       88.30776
N         24.22569       44.59514       86.12397
C         23.12525       45.49992       86.38443
C         23.01072       45.83783       87.84722
O         21.95205       45.61166       88.41694
H         24.95979       44.92493       85.48465
H         22.17854       45.04458       86.01837
H         23.28512       46.44357       85.82100
N         24.04956       46.42311       88.51007
C         23.95227       46.88004       89.89159
C         23.94639       48.40841       89.96867
O         23.79734       48.93543       91.06071
C         25.05879       46.24027       90.76382
C         26.43652       46.83688       90.56771
N         27.08672       47.40504       91.61276
O         26.97292       46.80383       89.47174
H         24.92385       46.59248       87.99690
H         22.98367       46.54068       90.31795
H         25.09220       45.14508       90.56966
H         24.77243       46.37358       91.82884
H         26.65913       47.43600       92.55046
H         28.02546       47.81241       91.49089
N         24.09059       49.17979       88.84598
C         24.04667       50.63324       88.82405
C         25.37621       51.24882       88.42199
O         25.41737       52.45650       88.22724
H         24.22878       48.73698       87.93194
H         23.76204       51.05308       89.81176
H         23.26526       50.92888       88.09145
N         26.51922       50.50797       88.36988
C         27.85647       51.06018       88.16322
C         28.62404       50.20798       87.17577
O         28.60569       48.99922       87.33164
C         28.58151       51.03681       89.52137
C         27.92550       51.98947       90.49372
C         27.24344       51.50916       91.62364
C         27.99029       53.37642       90.27020
C         26.63495       52.40236       92.51225
C         27.38952       54.26660       91.16352
C         26.70876       53.78194       92.28875
O         26.12547       54.63004       93.15979
H         26.47008       49.50868       88.62134
H         27.83086       52.11255       87.80295
H         29.64659       51.33471       89.40776
H         28.56249       49.99551       89.91527
H         27.17252       50.44553       91.81219
H         28.51363       53.76975       89.40748
H         26.10630       52.02174       93.37692
H         27.45487       55.33191       90.97985
H         26.16282       55.59069       93.04574
N         29.38404       50.75513       86.18410
C         30.14488       49.95218       85.22404
C         31.63221       50.07759       85.53265
O         32.11701       51.19093       85.68883
C         29.83357       50.37710       83.75647
C         28.30437       50.46894       83.51471
C         30.48858       49.37349       82.77929
C         27.92409       50.91308       82.09923
H         29.45748       51.78356       86.12460
H         29.85726       48.87943       85.31147
H         30.26249       51.38861       83.57910
H         27.87791       51.22497       84.20836
H         27.82625       49.49335       83.73032
H         30.04836       48.36009       82.91113
H         30.35515       49.68358       81.72431
H         31.58159       49.30566       82.94751
H         26.82251       51.03526       82.03432
H         28.40380       51.88530       81.85603
H         28.21646       50.15579       81.34400
N         32.42432       48.96748       85.59314
C         33.85135       48.99280       85.91208
C         34.69785       48.81159       84.66711
O         34.15680       48.66418       83.58516
C         34.16448       47.87475       86.92510
O         33.46319       48.08334       88.11922
H         32.00418       48.05761       85.35503
H         34.13939       49.97568       86.34438
H         35.25684       47.80133       87.13112
H         33.87003       46.88660       86.50597
H         34.09695       48.49554       88.76270
N         36.05754       48.85321       84.75404
C         36.95919       48.68110       83.61794
C         36.82907       47.29401       83.01882
O         36.62003       47.17881       81.81994
C         38.40958       48.90162       84.06427
H         36.47526       49.03116       85.68081
H         36.73569       49.44969       82.84405
H         38.70244       48.17159       84.84907
H         39.09767       48.79417       83.19864
H         38.52336       49.92747       84.47515
N         36.92735       46.19243       83.81613
C         36.81012       44.81835       83.33321
C         35.52743       44.61980       82.55747
O         35.55931       44.10922       81.44655
C         36.81917       43.84987       84.52787
H         37.05905       46.34465       84.82847
H         37.67483       44.57192       82.67913
H         35.96883       44.06037       85.21450
H         36.73205       42.79933       84.17675
H         37.76339       43.95324       85.10202
N         34.35455       45.01911       83.10544
C         33.04881       44.83211       82.48893
C         32.98328       45.51528       81.12779
O         32.62007       44.86023       80.16085
C         31.95189       45.30597       83.47228
C         32.00581       44.44315       84.76566
C         30.94192       44.78682       85.75459
O         30.11109       43.95581       86.07261
O         30.88468       45.99617       86.32166
H         34.40775       45.49017       84.02052
H         32.86968       43.74542       82.32425
H         30.95754       45.18222       82.99137
H         32.08694       46.38362       83.70655
H         32.97215       44.54724       85.29363
H         31.88646       43.37792       84.47720
N         33.38802       46.80443       80.96657
C         33.42348       47.49309       79.69051
H         34.47455       47.76434       79.44979
H         33.02679       46.87317       78.85975
H         32.82475       48.42522       79.75552
H         33.73562       47.31460       81.77980
Ca        28.79884       46.41584       86.97442
O         29.69326       44.87404       90.14442
H         29.97645       43.94596       90.34015
H         29.65544       45.31530       91.03010
O         30.65295       47.48463       89.22930
H         30.98256       48.38123       88.97049
H         31.28970       46.85080       88.81276

Ca 1.0



