%chk=holoCaM.loop3.water2.frame477.chk
%nprocshared=20
%mem=10GB
%nosave
#b3lyp/svp scf=(tight,noincore,xqc) Test 
#IOP(5/87=12) Density=Current Pop=(MK,readradii) iop(6/33=2) iop(6/42=6)

holoCaM.loop3.water2.frame477 

   0  1 
C         20.80958       53.90126       91.64854
C         21.18241       53.52592       93.05214
O         22.12232       52.76676       93.23907
H         19.93799       54.59095       91.63262
H         21.66556       54.40685       91.15703
H         20.53949       52.98692       91.08108
N         20.47758       54.02985       94.09879
C         20.76452       53.70896       95.48919
C         20.55708       52.21997       95.73507
O         19.51310       51.70132       95.36288
C         19.85654       54.55781       96.38944
C         20.19860       54.46526       97.83788
O         21.11820       53.77410       98.24085
O         19.49751       55.20377       98.70165
H         19.70299       54.68128       93.89397
H         21.81254       54.00654       95.71126
H         18.79249       54.27360       96.24266
H         19.97981       55.62762       96.11036
N         21.51845       51.47227       96.35209
C         21.47519       50.01957       96.46574
C         21.25723       49.55216       97.90679
O         21.00071       48.37340       98.09956
C         22.80694       49.49830       95.88924
C         22.84711       48.02760       95.47357
C         24.24632       47.70912       94.91521
C         24.30642       46.32425       94.26595
N         25.65138       46.04972       93.75757
H         22.34926       51.94478       96.71966
H         20.62504       49.64330       95.85628
H         23.60926       49.70842       96.62800
H         23.02360       50.07978       94.96349
H         22.08442       47.87808       94.67852
H         22.62210       47.35305       96.32582
H         24.99136       47.77768       95.73935
H         24.51825       48.45649       94.13626
H         23.58399       46.29385       93.41949
H         24.02229       45.54349       95.00422
H         25.65324       45.12370       93.27264
H         25.94059       46.78750       93.07398
H         26.33401       46.02001       94.54951
N         21.33911       50.41797       98.96434
C         21.05467       50.05569      100.35425
C         19.95818       50.93890      100.96430
O         19.60216       50.71489      102.11395
C         22.34474       50.09849      101.20228
C         22.99656       51.45151      101.28358
O         23.12862       52.05510      102.47900
O         23.44975       51.98774      100.28512
H         21.62579       51.38502       98.78681
H         20.68592       49.00780      100.40456
H         23.08037       49.37548      100.78886
H         22.09484       49.76436      102.23372
N         19.35321       51.93362      100.25432
C         18.25144       52.74093      100.74555
C         18.58142       53.64384      101.91908
O         17.87611       53.57020      102.91463
H         19.62141       52.09933       99.27782
H         17.39879       52.07455      101.00155
H         17.90955       53.40163       99.91924
N         19.57132       54.58335      101.84256
C         19.74695       55.64653      102.83748
C         19.58132       57.03170      102.19599
O         19.90517       58.02368      102.83389
C         21.10827       55.55964      103.55976
C         22.30929       55.91100      102.67244
N         23.40214       56.47101      103.45963
O         22.74824       54.77753      101.98466
H         20.17958       54.59415      101.01192
H         18.98583       55.56017      103.64339
H         21.25376       54.57708      104.05925
H         21.05498       56.31779      104.37266
H         23.06093       57.35860      103.89873
H         24.15748       56.76023      102.80004
N         19.05805       57.17708      100.94642
C         18.94040       58.44265      100.24246
C         20.22683       58.92500       99.57878
O         20.13978       59.92929       98.88658
H         18.63756       56.36096      100.49240
H         18.50612       59.21881      100.90978
H         18.22211       58.29265       99.40634
N         21.43729       58.29187       99.71048
C         22.65361       58.73999       99.01377
C         23.31894       57.60072       98.18282
O         22.42189       56.57681       97.89158
C         23.70789       59.25334      100.01491
C         23.26474       60.46975      100.79077
C         22.24893       60.38439      101.75698
C         23.88741       61.70818      100.56483
C         21.85139       61.51692      102.47150
C         23.48908       62.84095      101.27832
C         22.46707       62.74928      102.23357
O         22.07323       63.83464      102.92883
H         21.50711       57.48150      100.33600
H         22.40457       59.57012       98.31649
H         24.61959       59.51266       99.43378
H         23.98873       58.45334      100.73121
H         21.77131       59.44159      101.96731
H         24.67839       61.80034       99.83103
H         21.06615       61.43449      103.21267
H         23.97652       63.78806      101.08695
H         22.47504       64.70448      102.79267
N         23.94554       58.11092       96.94946
C         24.67975       57.11233       96.13182
C         26.19889       57.24556       96.32828
O         26.70294       58.35634       96.22704
C         24.34317       57.32186       94.61807
C         22.81718       57.47861       94.37451
C         24.89770       56.13929       93.79181
C         22.46552       57.79717       92.91599
H         24.48413       58.99461       97.09855
H         24.33776       56.08471       96.38416
H         24.82615       58.26589       94.28036
H         22.44419       58.33589       94.97424
H         22.27194       56.56493       94.69582
H         24.39015       55.19488       94.08717
H         24.75654       56.28870       92.70409
H         25.98457       56.01964       93.94558
H         23.00849       58.70679       92.57881
H         22.70903       56.95361       92.23959
H         21.37549       57.98643       92.82813
N         27.00102       56.15066       96.49847
C         28.46647       56.22544       96.57836
C         29.10873       55.72093       95.29247
O         28.39276       55.39392       94.36347
C         28.98555       55.42952       97.79090
O         28.86402       54.04721       97.58998
H         26.56087       55.22244       96.49039
H         28.78910       57.28055       96.71152
H         28.48489       55.74947       98.72712
H         30.06206       55.64173       97.94980
H         27.94175       53.80216       97.83536
N         30.46321       55.64445       95.16119
C         31.14098       55.18326       93.94912
C         30.77125       53.75169       93.58329
O         30.35820       53.52230       92.45617
C         32.66009       55.28410       94.12676
H         31.04548       55.94415       95.95794
H         30.86753       55.85479       93.10375
H         32.94430       56.33563       94.34558
H         33.00648       54.64054       94.96338
H         33.17652       54.97144       93.19391
N         30.89903       52.73884       94.48877
C         30.58277       51.33863       94.19384
C         29.16128       51.18492       93.69117
O         28.95681       50.57516       92.65031
C         30.77084       50.47967       95.44964
H         31.22330       52.98083       95.43763
H         31.28337       50.95559       93.41829
H         31.81979       50.55220       95.80657
H         30.09187       50.81448       96.26330
H         30.55332       49.41418       95.21912
N         28.13646       51.77146       94.36513
C         26.74055       51.74617       93.93195
C         26.61966       52.20594       92.48517
O         26.02777       51.49328       91.68675
C         25.90040       52.65538       94.85625
C         25.79938       52.09863       96.29027
C         25.09882       53.05491       97.21945
O         24.01893       53.53008       96.92326
O         25.66170       53.39949       98.39175
H         28.38400       52.32059       95.20226
H         26.33674       50.70994       93.99366
H         24.86601       52.74033       94.45507
H         26.35537       53.66509       94.86079
H         26.79646       51.86991       96.71905
H         25.23555       51.15013       96.24128
N         27.20676       53.36090       92.07179
C         27.18697       53.84438       90.70754
H         28.22836       53.88427       90.32142
H         26.58766       53.19610       90.03605
H         26.76264       54.86963       90.68892
H         27.73499       53.91165       92.74965
Ca        22.70033       55.38175       99.80631
O         25.80078       56.49379       99.90458
H         25.43614       56.62739      100.81342
H         26.73313       56.21165      100.06709
O         25.70063       53.67325      101.54293
H         26.59751       54.06294      101.39065
H         25.74747       53.29234      102.45549

Ca 1.0



