%chk=holoCaM-CaMKII.loop1.water2.frame188.chk
%nprocshared=20
%mem=10GB
%nosave
#b3lyp/svp scf=(tight,noincore,xqc) Test 
#IOP(5/87=12) Density=Current Pop=(MK,readradii) iop(6/33=2) iop(6/42=6)

holoCaM-CaMKII.loop1.water2.frame188 

   0  1 
C          6.50555       67.16652       20.26778
C          6.23472       68.59061       20.63060
O          6.96821       69.14353       21.43885
H          7.40219       66.79325       20.80881
H          5.63118       66.54217       20.53989
H          6.69432       67.09397       19.17604
N          5.21227       69.27082       20.03709
C          4.98989       70.68024       20.30700
C          4.24156       70.84028       21.62740
O          3.05008       70.56662       21.67540
C          4.25573       71.34893       19.12518
C          4.32930       72.82977       19.27061
O          5.53845       73.41804       19.31737
O          3.31741       73.49688       19.39788
H          4.65456       68.79613       19.31023
H          5.99621       71.15602       20.36269
H          3.20457       70.98976       19.06202
H          4.76114       71.09362       18.17073
N          4.90788       71.19632       22.76181
C          4.29172       71.19754       24.08980
C          3.52232       72.47593       24.42014
O          2.89015       72.48637       25.46788
C          5.36707       70.89261       25.16072
C          5.85198       69.43574       25.02986
C          6.98346       69.10169       26.00963
C          7.30227       67.59353       26.05420
N          7.69422       67.04892       24.75228
H          5.93076       71.29225       22.69682
H          3.54710       70.37088       24.14262
H          4.93784       71.00359       26.18075
H          6.20967       71.61260       25.05894
H          6.21037       69.24469       23.99844
H          4.98432       68.77035       25.23514
H          6.68284       69.40142       27.03698
H          7.89213       69.67867       25.72936
H          6.41255       67.03946       26.42855
H          8.13014       67.43412       26.78011
H          8.51224       67.57357       24.36763
H          7.96024       66.04483       24.87455
H          6.89391       67.08471       24.08109
N          3.49265       73.57103       23.60143
C          2.67368       74.76066       23.88362
C          1.60428       74.98176       22.80308
O          0.84015       75.92853       22.92364
C          3.57781       75.99460       24.14754
C          4.40509       76.41877       22.97338
O          5.30309       77.23369       23.10670
O          4.16030       75.87493       21.77784
H          4.05342       73.55904       22.73800
H          2.10922       74.61774       24.83068
H          4.26977       75.71185       24.97161
H          2.97533       76.86221       24.49318
N          1.43116       74.09459       21.77431
C          0.29998       74.11966       20.85623
C          0.30498       75.17735       19.76830
O         -0.64460       75.17313       18.99664
H          2.03749       73.26632       21.71165
H         -0.63877       74.19015       21.44670
H          0.27679       73.14511       20.32011
N          1.30321       76.09182       19.59632
C          1.26791       77.07922       18.50936
C          1.44484       76.46663       17.10558
O          1.39431       77.21327       16.13837
C          2.30573       78.19859       18.75701
C          3.74040       77.77151       18.65755
O          4.71097       78.67247       18.89535
O          4.03859       76.63276       18.34078
H          2.07928       76.11500       20.27166
H          0.27799       77.58655       18.54960
H          2.13128       78.62007       19.77095
H          2.14863       79.01517       18.01948
N          1.65259       75.12931       16.91399
C          1.82320       74.50170       15.61137
C          3.13946       74.86310       14.96013
O          3.13430       75.27950       13.81447
H          1.66968       74.49478       17.71982
H          0.95757       74.73671       14.95301
H          1.84203       73.39998       15.75774
N          4.30712       74.65272       15.63245
C          5.66972       74.89153       15.13199
C          6.66166       74.37997       16.17802
O          6.58522       74.80603       17.32062
C          6.01302       76.38674       14.83634
C          5.46880       76.98766       13.53259
O          5.69560       77.21461       15.92143
H          4.21110       74.25157       16.57915
H          5.83316       74.31101       14.19716
H          7.11640       76.41873       14.68600
H          4.70795       77.30572       15.93958
H          4.38390       77.18154       13.56866
H          5.94609       77.97702       13.36651
H          5.72040       76.33378       12.67026
N          7.63886       73.48702       15.84956
C          8.56917       72.90760       16.82040
C          9.87553       73.68398       16.79258
O         10.39339       73.93703       15.71212
C          8.80460       71.39529       16.52084
C          7.45881       70.62779       16.43635
C          9.71642       70.77448       17.60325
C          7.61256       69.16900       15.99746
H          7.74780       73.21884       14.85869
H          8.13870       72.97084       17.84499
H          9.31113       71.31461       15.53310
H          6.80707       71.11074       15.67789
H          6.93855       70.66484       17.41623
H          9.96015       69.71864       17.37569
H         10.68609       71.30792       17.66624
H          9.22120       70.81973       18.59761
H          8.17830       68.57272       16.74029
H          6.60820       68.70717       15.89486
H          8.12609       69.11744       15.01329
N         10.48442       74.05929       17.95677
C         11.71218       74.85104       18.01271
C         12.88441       74.02883       18.51267
O         12.70880       72.87663       18.89303
C         11.51841       76.08582       18.94242
C         10.38279       76.99577       18.48608
O         11.32221       75.69432       20.28136
H         10.06803       73.74798       18.84617
H         11.98174       75.20602       16.99381
H         12.43829       76.70657       18.91841
H         10.39289       75.36569       20.38916
H         10.30734       77.87103       19.16728
H         10.56165       77.35569       17.45205
H          9.43428       76.42895       18.52709
N         14.12857       74.58829       18.55836
C         15.28884       73.92181       19.14399
C         15.04946       73.64237       20.61986
O         15.65270       72.72990       21.16331
C         16.56684       74.79082       19.02029
C         16.97033       75.04986       17.56755
O         16.37194       76.02836       19.66467
H         14.23968       75.54800       18.19687
H         15.45223       72.95809       18.61040
H         17.41359       74.23163       19.48867
H         16.98956       76.06776       20.44084
H         17.15555       74.08957       17.04314
H         16.18740       75.61562       17.02192
H         17.90443       75.65119       17.54687
N         14.21009       74.44419       21.33573
C         13.92659       74.26524       22.75134
C         13.21090       72.94071       22.94145
O         13.65894       72.10010       23.70906
C         13.01373       75.40461       23.30319
C         13.50321       76.83905       22.99437
C         12.55392       77.91888       23.54861
C         12.60124       78.10090       25.07453
N         13.89664       78.62373       25.51689
H         13.76022       75.21916       20.84327
H         14.88253       74.29624       23.31993
H         12.92626       75.25968       24.40084
H         11.99433       75.31980       22.87190
H         13.49587       76.99539       21.89919
H         14.54430       76.99622       23.33799
H         11.51430       77.67514       23.23415
H         12.81269       78.89697       23.08774
H         12.36798       77.15159       25.60097
H         11.81557       78.83893       25.35050
H         13.85504       78.81945       26.54241
H         14.65886       77.93141       25.34596
H         14.11208       79.51777       25.01687
N         12.05628       72.71657       22.25362
C         11.20587       71.54119       22.40617
C         11.82938       70.27594       21.82758
O         11.23464       69.22036       21.99650
C          9.84435       71.81016       21.71925
C          9.12318       73.01751       22.35802
C          7.91275       73.42216       21.58095
O          6.71426       73.49915       22.18324
O          8.02416       73.75656       20.41386
H         11.74469       73.45959       21.61202
H         11.01588       71.38171       23.49102
H          9.17997       70.92128       21.79317
H         10.03792       72.00965       20.64173
H          9.77495       73.91148       22.37839
H          8.84747       72.77471       23.40686
N         12.99996       70.29335       21.12397
C         13.61160       69.10545       20.56104
H         14.63217       68.98485       20.98084
H         13.03395       68.18261       20.77831
H         13.68850       69.21854       19.45923
H         13.48969       71.18022       20.95520
Ca         5.60638       75.47838       20.15669
O          7.21991       77.57981       18.27442
H          7.63813       77.22593       17.45069
H          7.60788       78.48421       18.37330
O          7.94339       77.43692       21.22288
H          7.85205       78.38523       20.95303
H          7.87665       77.45394       22.21017

Ca 1.0



