%chk=holoCaM.loop3.water1.frame18.chk
%nprocshared=20
%mem=10GB
%nosave
#b3lyp/svp scf=(tight,noincore,xqc) Test 
#IOP(5/87=12) Density=Current Pop=(MK,readradii) iop(6/33=2) iop(6/42=6)

holoCaM.loop3.water1.frame18 

   0  1 
C         63.61057       31.67711       40.42490
C         64.92087       32.40905       40.48880
O         65.21191       33.01194       41.51188
H         62.77204       32.39153       40.55808
H         63.48133       31.15868       39.45098
H         63.57313       30.91525       41.23177
N         65.77491       32.38687       39.42749
C         67.08224       33.03631       39.43737
C         66.91183       34.53862       39.62551
O         66.18091       35.15962       38.86628
C         67.84572       32.66794       38.14946
C         69.30692       33.00959       38.22397
O         69.71451       34.28255       38.31204
O         70.14013       32.11972       38.19688
H         65.49102       31.85768       38.58796
H         67.66507       32.61032       40.28312
H         67.37285       33.13478       37.26057
H         67.78239       31.56346       38.02614
N         67.50384       35.16485       40.68145
C         67.22944       36.55032       41.06488
C         67.65318       37.57314       40.00389
O         67.02501       38.61994       39.93456
C         67.84029       36.81043       42.46412
C         67.27611       38.02568       43.22151
C         67.79688       38.00855       44.67626
C         67.13244       39.04098       45.60195
N         67.43613       40.41860       45.22188
H         68.09885       34.59333       41.29975
H         66.12329       36.61445       41.18153
H         68.94981       36.85154       42.40228
H         67.56666       35.92806       43.08642
H         66.16779       37.93523       43.25125
H         67.54741       38.97065       42.70661
H         68.90087       38.13832       44.68840
H         67.56568       37.01383       45.11899
H         67.50774       38.86655       46.63597
H         66.03067       38.88401       45.61367
H         68.47068       40.57058       45.22667
H         67.04220       40.63489       44.27943
H         66.99894       41.06211       45.92123
N         68.67255       37.32572       39.12233
C         69.03773       38.21461       38.00859
C         68.87835       37.52012       36.64133
O         69.18345       38.14121       35.63289
C         70.46127       38.79342       38.21987
C         71.53028       37.74807       38.20093
O         72.20787       37.45783       39.31535
O         71.73853       37.09532       37.19805
H         69.21170       36.45913       39.23736
H         68.36242       39.09737       37.98929
H         70.47572       39.30855       39.20527
H         70.69444       39.54812       37.43849
N         68.34533       36.26526       36.52586
C         68.03617       35.60628       35.26244
C         69.20940       35.03383       34.48381
O         68.94842       34.46776       33.43105
H         68.01820       35.78601       37.36816
H         67.45799       36.30639       34.62096
H         67.37204       34.74208       35.47797
N         70.50775       35.12427       34.89353
C         71.61078       34.60784       34.08000
C         71.65154       33.08189       33.99047
O         72.30428       32.58461       33.08319
C         72.99043       35.15587       34.51965
C         73.43991       34.78100       35.91282
N         74.68353       35.11437       36.32620
O         72.69524       34.18595       36.67407
H         70.71253       35.62314       35.75985
H         71.45328       35.00090       33.04952
H         72.98631       36.26505       34.44789
H         73.74901       34.77511       33.80088
H         75.33034       35.61370       35.69843
H         75.00694       34.86028       37.27037
N         71.03184       32.27717       34.90512
C         71.02685       30.81949       34.81983
C         71.78134       30.12203       35.94286
O         71.76008       28.89926       35.95861
H         70.53415       32.70711       35.69503
H         71.48217       30.46955       33.86743
H         69.96947       30.48119       34.82251
N         72.52214       30.80253       36.86731
C         73.35955       30.15660       37.87738
C         73.03191       30.67592       39.26416
O         73.00682       31.88496       39.44747
C         74.85244       30.41565       37.58804
C         75.25941       29.85760       36.24489
C         74.91615       30.52815       35.05773
C         75.97781       28.65274       36.16722
C         75.27523       29.99732       33.81655
C         76.32807       28.11864       34.92395
C         75.97606       28.78939       33.74368
O         76.30348       28.28326       32.53791
H         72.56393       31.82452       36.81366
H         73.22961       29.05121       37.86111
H         75.42446       29.89429       38.38857
H         75.11878       31.49430       37.64479
H         74.37443       31.46491       35.09079
H         76.25026       28.11527       37.06719
H         75.00404       30.52462       32.91066
H         76.86864       27.18160       34.87983
H         76.77838       27.44522       32.44395
N         72.81611       29.81433       40.30317
C         72.52027       30.25584       41.66429
C         73.62380       29.80824       42.61841
O         73.76960       28.61728       42.85790
C         71.11694       29.72204       42.08673
C         70.03142       30.37415       41.18929
C         70.83128       29.97115       43.58033
C         68.62258       29.82764       41.41815
H         72.86991       28.79892       40.12818
H         72.48345       31.36217       41.70879
H         71.10214       28.62000       41.93102
H         70.27693       30.18117       40.12405
H         70.02198       31.47490       41.34694
H         69.85071       29.55571       43.88298
H         71.57584       29.44990       44.21203
H         70.85874       31.04988       43.81094
H         68.25607       30.05572       42.43864
H         67.92318       30.30240       40.70024
H         68.60650       28.73097       41.24884
N         74.43015       30.73715       43.21696
C         75.41956       30.41251       44.24756
C         74.72923       30.11621       45.57651
O         73.51623       30.19572       45.64365
C         76.40217       31.59001       44.42698
O         75.74285       32.74037       44.89072
H         74.33011       31.72225       42.92925
H         76.02179       29.53805       43.91627
H         76.92800       31.78878       43.46338
H         77.19903       31.32994       45.15496
H         75.64227       33.35782       44.12037
N         75.44305       29.79395       46.69226
C         74.82541       29.60296       48.00602
C         74.20192       30.89280       48.51878
O         73.04096       30.87865       48.90259
C         75.86392       29.12087       49.02232
H         76.46538       29.68967       46.60729
H         74.04889       28.80704       47.94276
H         76.29653       28.15497       48.68676
H         76.68166       29.86192       49.14399
H         75.37676       28.95801       50.00892
N         74.92583       32.05067       48.54044
C         74.42029       33.33242       49.03723
C         73.09380       33.68497       48.39690
O         72.13345       33.96076       49.10182
C         75.44467       34.44150       48.74627
H         75.88307       32.02080       48.15529
H         74.27838       33.27447       50.13858
H         75.62618       34.53723       47.65286
H         75.08051       35.41861       49.12938
H         76.41201       34.20960       49.24007
N         72.97326       33.64076       47.04831
C         71.74321       33.90900       46.31308
C         70.61258       33.01107       46.78546
O         69.58790       33.52544       47.21223
C         72.06648       33.72078       44.82634
C         70.92299       33.96018       43.83955
C         71.47261       33.95216       42.43732
O         70.67146       34.17887       41.39431
O         72.67396       33.85334       42.23001
H         73.81532       33.37103       46.51670
H         71.44395       34.96965       46.47302
H         72.46736       32.69713       44.65133
H         72.87646       34.45317       44.60396
H         70.46930       34.95786       44.02107
H         70.13381       33.18941       43.95630
N         70.73927       31.65971       46.76646
C         69.70585       30.77069       47.24653
H         68.77881       30.90690       46.65180
H         70.04297       29.71627       47.14908
H         69.49894       30.97638       48.31859
H         71.60681       31.24686       46.41765
Ca        71.82804       35.34325       39.88893
O         75.03951       33.91485       39.86439
H         75.90586       33.87371       39.38738
H         75.06130       33.13987       40.48013

Ca 1.0



