%chk=holoCaM.loop1.water2.frame274.chk
%nprocshared=20
%mem=10GB
%nosave
#b3lyp/svp scf=(tight,noincore,xqc) Test 
#IOP(5/87=12) Density=Current Pop=(MK,readradii) iop(6/33=2) iop(6/42=6)

holoCaM.loop1.water2.frame274 

   0  1 
C         27.56555      103.22713       61.81882
C         26.74779      103.05875       60.57377
O         26.93618      103.81040       59.63361
H         28.27164      104.07838       61.71772
H         26.88690      103.42963       62.67502
H         28.14013      102.29948       62.02100
N         25.82626      102.06091       60.50660
C         24.91181      101.82259       59.38947
C         23.78976      102.87455       59.38779
O         22.68362      102.57780       59.81927
C         24.35753      100.38848       59.53895
C         23.36030      100.05111       58.47978
O         23.66459      100.07554       57.29878
O         22.10745       99.73970       58.84664
H         25.78295      101.41894       61.31460
H         25.46156      101.82698       58.42518
H         23.86874      100.27657       60.53160
H         25.19710       99.66011       59.48396
N         24.02403      104.14840       58.96402
C         23.06776      105.24116       59.14337
C         21.89102      105.23026       58.17062
O         21.00752      106.05782       58.34725
C         23.80337      106.60085       59.08350
C         24.87910      106.67805       60.18219
C         25.58040      108.03587       60.23109
C         26.70829      108.06591       61.28130
N         26.22224      107.81262       62.64054
H         24.95418      104.37410       58.59685
H         22.64727      105.15766       60.17053
H         23.07033      107.41863       59.25661
H         24.26534      106.74634       58.08111
H         25.65309      105.90738       60.01452
H         24.38654      106.48209       61.15649
H         24.83615      108.83013       60.45461
H         26.03311      108.24670       59.23729
H         27.18329      109.07056       61.24834
H         27.48548      107.31207       61.02178
H         25.45504      108.48047       62.88266
H         25.88603      106.82809       62.73839
H         27.01151      107.94299       63.31321
N         21.79616      104.35084       57.13258
C         20.66281      104.31794       56.20052
C         19.89062      102.98701       56.27603
O         18.88486      102.86150       55.59155
C         21.14039      104.69373       54.77756
C         22.32829      103.88142       54.36724
O         22.22695      102.54858       54.38064
O         23.39555      104.41763       54.11700
H         22.55813      103.67424       56.98384
H         19.90711      105.08842       56.47127
H         21.43459      105.76739       54.77174
H         20.30715      104.57246       54.05062
N         20.22342      102.00939       57.17147
C         19.35720      100.88532       57.51410
C         19.25721       99.75055       56.51109
O         18.14977       99.38594       56.14489
H         21.04831      102.13788       57.77128
H         18.34745      101.27182       57.77269
H         19.75391      100.42481       58.44157
N         20.37044       99.08226       56.10265
C         20.36170       97.82930       55.33557
C         21.22188       96.74827       56.00055
O         21.42353       95.70683       55.38980
C         20.77267       98.07209       53.86668
C         21.85682       99.08433       53.70015
O         23.06061       98.96583       54.28578
O         21.60473      100.10377       53.07675
H         21.28618       99.46618       56.37591
H         19.34072       97.39084       55.27519
H         19.88007       98.48504       53.34484
H         21.02462       97.11936       53.35463
N         21.70225       96.88002       57.27146
C         22.48111       95.85376       57.94560
C         23.90219       95.70662       57.43706
O         24.59884       94.85804       57.97445
H         21.44263       97.69971       57.82753
H         21.94549       94.88075       57.87993
H         22.56234       96.11831       59.02252
N         24.41653       96.48224       56.43452
C         25.79420       96.35397       55.95909
C         26.54401       97.67603       56.08066
O         25.95595       98.68807       56.42881
C         25.81462       95.83130       54.50029
C         25.18851       94.43263       54.38029
O         25.19211       96.73580       53.62269
H         23.82165       97.18701       55.98327
H         26.34819       95.61888       56.58280
H         26.87060       95.72400       54.17255
H         24.20983       96.65131       53.73471
H         25.72763       93.71435       55.03379
H         24.11750       94.44807       54.67443
H         25.26060       94.07795       53.33039
N         27.88371       97.70949       55.82918
C         28.72161       98.90041       55.92528
C         29.39550       99.13748       54.58069
O         30.05121       98.24472       54.06352
C         29.75501       98.71105       57.08061
C         29.06265       98.68660       58.47554
C         30.88391       99.76134       57.06585
C         28.41824      100.01464       58.91474
H         28.35378       96.82614       55.58058
H         28.12322       99.80088       56.16002
H         30.25152       97.72610       56.93262
H         29.82166       98.41945       59.24266
H         28.28470       97.89420       58.48999
H         31.59070       99.57406       57.90250
H         31.46900       99.69527       56.12582
H         30.48982      100.79010       57.15459
H         29.17331      100.82402       58.99207
H         27.61214      100.33655       58.22690
H         27.96693       99.89131       59.92132
N         29.32377      100.37100       54.00345
C         30.01390      100.75608       52.77774
C         31.25533      101.56118       53.13437
O         31.52752      101.75795       54.30931
C         29.05733      101.56214       51.85312
C         27.87863      100.71386       51.35854
O         28.61417      102.74169       52.48616
H         28.83462      101.11339       54.51269
H         30.37308       99.85779       52.22976
H         29.59877      101.87083       50.93566
H         27.80249      102.53466       53.01896
H         27.23054      101.32313       50.69208
H         28.25056       99.83982       50.78366
H         27.27686      100.35392       52.21562
N         32.07477      102.03937       52.15521
C         33.30166      102.78918       52.42360
C         33.04326      104.00174       53.29276
O         33.75449      104.16707       54.27399
C         34.01178      103.21304       51.11424
C         34.59737      102.00759       50.37559
O         33.13133      103.89876       50.25904
H         31.81500      101.85834       51.17543
H         34.01357      102.13963       52.98269
H         34.88818      103.85699       51.36965
H         33.22851      104.86778       50.44828
H         35.32978      101.48491       51.02889
H         33.80760      101.28882       50.07656
H         35.13202      102.35094       49.46493
N         32.05821      104.89600       53.00617
C         31.80774      106.06114       53.84533
C         31.40282      105.64685       55.25148
O         31.99972      106.13563       56.20091
C         30.76707      106.99640       53.19532
C         30.67710      108.33086       53.96033
C         29.95346      109.41325       53.15123
C         30.01059      110.76246       53.88526
N         29.46764      111.83773       53.05656
H         31.47590      104.74491       52.16786
H         32.75153      106.65087       53.89731
H         29.76655      106.51773       53.10718
H         31.13919      107.21623       52.17019
H         31.71098      108.70204       54.13467
H         30.18739      108.17804       54.94736
H         28.89838      109.12160       52.95778
H         30.47766      109.52640       52.17669
H         31.06952      111.00785       54.12737
H         29.44205      110.69550       54.83922
H         29.53152      112.73930       53.58262
H         30.02881      111.92639       52.17756
H         28.46767      111.64639       52.82073
N         30.41605      104.72581       55.45913
C         29.97954      104.31947       56.79947
C         31.09762      103.66731       57.61828
O         30.90877      103.48902       58.81370
C         28.78233      103.34084       56.73259
C         27.56574      103.91382       55.98168
C         26.43506      102.92772       55.90481
O         26.59786      101.83605       55.38636
O         25.21579      103.26553       56.35642
H         29.96598      104.31527       54.62912
H         29.65436      105.23949       57.33396
H         28.47132      103.06887       57.76276
H         29.12093      102.41599       56.23256
H         27.83604      104.16881       54.93994
H         27.21790      104.83912       56.48844
N         32.27313      103.27277       57.04958
C         33.38060      102.69072       57.77888
H         34.28475      103.31790       57.62247
H         33.18523      102.62364       58.86840
H         33.58648      101.67277       57.38620
H         32.40306      103.37155       56.04148
Ca        23.88750      101.03856       54.34864
O         24.84224       99.48028       51.94407
H         24.22317       98.74627       51.70647
H         25.28832       99.17460       52.77365
O         24.73071      102.41545       51.58637
H         24.67013      102.90718       52.44245
H         23.78978      102.24022       51.33261

Ca 1.0



