%chk=holoCaM-CaMKII.loop1.water2.frame362.chk
%nprocshared=20
%mem=10GB
%nosave
#b3lyp/svp scf=(tight,noincore,xqc) Test 
#IOP(5/87=12) Density=Current Pop=(MK,readradii) iop(6/33=2) iop(6/42=6)

holoCaM-CaMKII.loop1.water2.frame362 

   0  1 
C         48.15930       64.51242       41.18972
C         49.08391       64.77407       42.33785
O         49.16341       65.90233       42.80190
H         47.62642       65.44046       40.89328
H         48.74593       64.14085       40.32349
H         47.41201       63.74480       41.48186
N         49.81093       63.75242       42.86368
C         50.72490       63.93140       43.98165
C         51.89434       64.82194       43.56491
O         52.67162       64.43618       42.70366
C         51.18570       62.54699       44.48462
C         52.10312       62.61554       45.66518
O         51.71485       63.22112       46.79991
O         53.19823       62.08597       45.60896
H         49.68008       62.80835       42.46626
H         50.15878       64.40423       44.81606
H         51.68747       61.99365       43.66061
H         50.28672       61.96814       44.79155
N         52.05417       66.04445       44.14581
C         53.12834       66.99098       43.86115
C         54.00403       67.22648       45.08812
O         54.96764       67.97168       44.97600
C         52.50891       68.32049       43.36872
C         51.86490       68.20930       41.96909
C         52.87009       67.95140       40.82482
C         53.86366       69.11328       40.63055
N         54.80308       68.82937       39.54760
H         51.36372       66.33699       44.84200
H         53.82142       66.58828       43.09715
H         53.26540       69.12813       43.35032
H         51.73587       68.64076       44.10254
H         51.32492       69.15500       41.74577
H         51.11400       67.39305       41.97969
H         52.29512       67.82736       39.88166
H         53.42039       67.00479       40.99561
H         54.45293       69.28995       41.55315
H         53.29604       70.04117       40.39430
H         54.28953       68.65919       38.65326
H         55.43844       69.65122       39.42522
H         55.38141       67.99245       39.79166
N         53.77720       66.58007       46.26671
C         54.66878       66.63220       47.42025
C         55.29940       65.26131       47.66671
O         56.05562       65.13291       48.61944
C         53.92732       67.22221       48.64328
C         52.54426       66.66862       48.83594
O         52.32196       65.36858       49.09409
O         51.58643       67.41349       48.69830
H         52.96579       65.95314       46.35362
H         55.53411       67.30688       47.23682
H         53.80953       68.31258       48.44878
H         54.53521       67.12038       49.56753
N         55.12731       64.22126       46.79150
C         55.85753       62.96442       46.87679
C         55.48421       62.06411       48.03744
O         56.08655       61.00486       48.14119
H         54.54123       64.34377       45.95460
H         56.94515       63.18710       46.91336
H         55.67757       62.38515       45.94560
N         54.52723       62.39053       48.95215
C         54.22688       61.55024       50.11223
C         53.46623       60.25823       49.78135
O         53.15051       59.52726       50.71039
C         53.52754       62.38652       51.20856
C         52.17721       62.93679       50.87092
O         51.56348       63.73041       51.76610
O         51.64007       62.70135       49.80326
H         54.05274       63.29917       48.87103
H         55.19204       61.25862       50.58270
H         54.18638       63.25095       51.44479
H         53.42623       61.77609       52.13076
N         53.17522       59.87783       48.50063
C         52.52027       58.61867       48.16765
C         51.01687       58.62302       48.36802
O         50.39714       57.62277       48.03654
H         53.49226       60.45178       47.71030
H         52.99958       57.77982       48.71968
H         52.67334       58.42768       47.08336
N         50.35455       59.70388       48.86849
C         48.90121       59.79132       48.97425
C         48.38398       61.02104       48.23853
O         49.16084       61.85153       47.78942
C         48.46202       59.81994       50.46008
C         48.58576       58.44666       51.13101
O         49.17402       60.79364       51.17968
H         50.89383       60.51857       49.17267
H         48.42049       58.91569       48.48488
H         47.38197       60.07432       50.52137
H         50.08236       60.43910       51.37297
H         49.63335       58.08217       51.11531
H         48.24100       58.51803       52.18512
H         47.93738       57.71398       50.60404
N         47.04141       61.15367       48.04507
C         46.40130       62.26147       47.34398
C         45.34461       62.85242       48.26677
O         44.51961       62.10805       48.77807
C         45.77651       61.74710       46.01157
C         46.89721       61.18778       45.09000
C         45.00531       62.87921       45.29781
C         46.38365       60.53808       43.80384
H         46.42861       60.39531       48.38216
H         47.13801       63.04918       47.06966
H         45.05952       60.92983       46.24865
H         47.46261       60.40100       45.63205
H         47.60911       62.00131       44.82475
H         44.19544       63.27643       45.94273
H         45.69063       63.71126       45.03060
H         44.50911       62.51375       44.37754
H         45.69485       59.70177       44.04729
H         45.86629       61.26801       43.15036
H         47.24436       60.13239       43.23081
N         45.27985       64.19745       48.47673
C         44.27954       64.83529       49.33207
C         43.25301       65.55417       48.48779
O         43.36983       65.57027       47.27677
C         44.96192       65.83643       50.29896
C         45.90265       65.12259       51.25960
O         45.67389       66.79631       49.55740
H         45.92960       64.80528       47.96083
H         43.72080       64.07504       49.92068
H         44.18375       66.34345       50.91326
H         45.80250       67.58515       50.14604
H         46.67567       64.58889       50.68045
H         46.38706       65.86111       51.93424
H         45.33925       64.39286       51.87807
N         42.19516       66.16666       49.08318
C         41.18745       66.93386       48.35647
C         41.82196       68.11842       47.64313
O         41.48428       68.36288       46.49329
C         40.06617       67.40919       49.31180
C         39.28180       66.21949       49.88095
O         40.59382       68.16206       50.37482
H         42.11442       66.09267       50.10735
H         40.70034       66.28673       47.59138
H         39.32792       68.01722       48.73672
H         40.64701       69.10407       50.06815
H         38.46494       66.58440       50.53758
H         38.82964       65.62887       49.05506
H         39.93159       65.54655       50.47831
N         42.80131       68.85289       48.24718
C         43.50554       69.96488       47.60798
C         44.06005       69.54052       46.26030
O         43.78862       70.18708       45.25856
C         44.66755       70.42992       48.52820
C         45.45265       71.62729       47.95902
C         46.60423       72.09147       48.87114
C         47.74977       71.06711       48.98433
N         48.84258       71.59517       49.80251
H         43.09419       68.57321       49.19654
H         42.79953       70.81151       47.46027
H         45.35745       69.57610       48.68561
H         44.25098       70.71990       49.51733
H         44.74264       72.47374       47.83980
H         45.87327       71.38411       46.95931
H         46.20802       72.33484       49.88094
H         47.02448       73.02231       48.43153
H         48.13854       70.83653       47.96717
H         47.38791       70.12275       49.44217
H         49.21896       72.47517       49.38024
H         48.50454       71.78738       50.77345
H         49.61234       70.88846       49.84654
N         44.85852       68.44831       46.18557
C         45.50730       67.98021       44.96695
C         44.47662       67.61469       43.91280
O         44.54186       68.15807       42.81878
C         46.47948       66.83099       45.33091
C         47.58427       67.42239       46.23636
C         48.60333       66.46076       46.73981
O         49.77396       66.66594       46.48334
O         48.29625       65.47102       47.59635
H         45.01646       67.92832       47.06137
H         46.13380       68.79877       44.54338
H         46.94851       66.41761       44.41180
H         45.93195       66.01391       45.84726
H         47.16444       67.90056       47.14195
H         48.10902       68.21520       45.65669
N         43.46011       66.75596       44.19082
C         42.39354       66.43758       43.26357
H         41.42614       66.77434       43.69531
H         42.52360       66.93270       42.27883
H         42.35230       65.34000       43.10959
H         43.40814       66.33647       45.12006
Ca        50.20029       64.78297       48.57255
O         48.79008       66.85513       50.35179
H         49.72658       66.98490       50.64535
H         48.39027       67.75936       50.38133
O         48.93344       63.93579       51.16464
H         48.81811       64.65243       51.83650
H         48.99971       63.11762       51.71089

Ca 1.0



