%chk=holoCaM.loop4.water3.frame226.chk
%nprocshared=20
%mem=10GB
%nosave
#b3lyp/svp scf=(tight,noincore,xqc) Test 
#IOP(5/87=12) Density=Current Pop=(MK,readradii) iop(6/33=2) iop(6/42=6)

holoCaM.loop4.water3.frame226 

   -3  1 
C         34.48997       57.23303       16.14388
C         33.87953       56.82714       17.45009
O         33.31258       57.68009       18.11433
H         35.56635       56.98043       16.10713
H         33.95091       56.70446       15.32735
H         34.35954       58.32616       15.97925
N         33.89746       55.52355       17.86002
C         32.98895       55.04819       18.89858
C         33.35601       53.66298       19.45693
O         33.64056       52.75554       18.68829
C         31.59025       55.00153       18.25141
C         30.59552       54.37383       19.15378
O         30.04975       53.33716       18.81510
O         30.38912       54.84027       20.38907
H         34.35948       54.82997       17.25188
H         32.96502       55.76371       19.75197
H         31.64119       54.39376       17.32220
H         31.25492       56.01884       17.97245
N         33.25318       53.42947       20.80830
C         33.46447       52.13783       21.46541
C         32.23316       51.62404       22.25699
O         32.27579       50.47088       22.66452
C         34.69040       52.18481       22.43826
C         34.45329       53.05957       23.70554
C         35.96162       52.65486       21.70547
C         35.33901       52.63240       24.87920
H         32.98868       54.21151       21.39828
H         33.68721       51.38029       20.68194
H         34.83962       51.13614       22.77868
H         33.41698       52.95088       24.08318
H         34.62048       54.12900       23.47382
H         36.16942       52.00587       20.83069
H         35.83672       53.70073       21.34540
H         36.84615       52.63310       22.37396
H         36.41717       52.69328       24.63538
H         35.13470       53.27874       25.75948
H         35.08998       51.58562       25.16351
N         31.17561       52.42761       22.61438
C         30.07260       51.99908       23.49785
C         28.66670       52.22935       22.92023
O         27.70245       51.86370       23.57900
C         30.18465       52.66339       24.89811
C         30.14203       54.17349       24.96369
O         30.21184       54.93802       23.86515
O         30.14091       54.71905       26.05337
H         31.19232       53.40634       22.31943
H         30.14935       50.90402       23.68432
H         31.13320       52.33706       25.37788
H         29.35304       52.27581       25.52748
N         28.46579       52.78053       21.69383
C         27.16428       52.91881       21.05236
C         26.19435       53.93543       21.64495
O         25.07654       53.97346       21.14980
H         29.28284       53.00682       21.13535
H         26.67912       51.91910       21.04829
H         27.32076       53.21248       19.99179
N         26.49854       54.77897       22.67639
C         25.48886       55.66784       23.27174
C         24.90481       56.71966       22.32093
O         23.76210       57.10745       22.52159
C         25.97546       56.32120       24.58454
C         27.19048       57.20372       24.48414
O         27.80028       57.33914       23.43745
O         27.62670       57.83615       25.58918
H         27.44194       54.74352       23.08812
H         24.63631       55.01881       23.57409
H         26.21300       55.51791       25.31332
H         25.14136       56.92678       25.00175
N         25.62556       57.24051       21.29212
C         25.11457       58.21837       20.33648
C         25.90387       59.51522       20.32829
O         25.65458       60.32915       19.45023
H         26.58671       56.91732       21.17141
H         24.04450       58.46246       20.51185
H         25.19296       57.76526       19.32433
N         26.85182       59.79353       21.26964
C         27.67512       60.99977       21.26533
C         29.14292       60.63340       21.23892
O         29.46815       59.45657       21.30057
C         27.34378       61.86766       22.49407
C         25.93340       62.46116       22.35744
C         25.58625       63.45788       23.43302
N         24.40290       64.11008       23.37413
O         26.36652       63.70013       24.34285
H         27.00323       59.13079       22.03758
H         27.49413       61.60206       20.34838
H         28.05658       62.71707       22.54705
H         27.44107       61.27394       23.43180
H         25.17647       61.64775       22.35365
H         25.88022       63.00238       21.38777
H         23.74173       63.92479       22.60499
H         24.15189       64.81024       24.08704
N         30.09216       61.60997       21.12829
C         31.51694       61.32791       21.03232
C         32.18950       61.87817       22.27383
O         32.02951       63.05058       22.58342
C         32.13989       61.91663       19.73114
C         33.49674       61.24277       19.44164
C         31.22763       61.73211       18.50739
H         29.79736       62.59748       21.09569
H         31.67179       60.23022       20.99076
H         32.28809       63.01167       19.85476
H         33.35255       60.15531       19.25228
H         33.96923       61.68225       18.53758
H         34.19703       61.35784       20.29301
H         31.71608       62.14838       17.60001
H         30.99580       60.66241       18.33290
H         30.27758       62.28986       18.64906
N         32.96839       61.06732       23.02937
C         33.61379       61.44674       24.27124
C         35.06983       61.75823       23.98591
O         35.50205       61.67800       22.84648
C         33.40627       60.27153       25.27873
C         34.01184       60.44201       26.65252
N         33.66445       61.48078       27.44676
O         34.82615       59.62420       27.05557
H         33.17113       60.13499       22.67197
H         33.15851       62.37370       24.68092
H         33.82437       59.33986       24.83263
H         32.31522       60.11790       25.41771
H         32.98496       62.18465       27.12717
H         34.09618       61.59182       28.37686
N         35.87283       62.17538       24.99217
C         37.30027       62.43404       24.88290
C         38.04871       61.16907       24.49188
O         38.91116       61.23109       23.62747
C         37.76318       62.97468       26.24946
C         39.19752       63.41037       26.32527
C         39.71206       64.35358       25.42071
C         40.01898       62.91754       27.35065
C         41.03040       64.79633       25.54220
C         41.33177       63.37275       27.47923
C         41.84152       64.31625       26.57566
O         43.10231       64.77511       26.69750
H         35.43757       62.32344       25.90870
H         37.47245       63.22081       24.11647
H         37.54235       62.21902       27.03725
H         37.14996       63.87587       26.47036
H         39.09525       64.75497       24.62716
H         39.63604       62.20161       28.06818
H         41.41524       65.52502       24.84049
H         41.94598       62.99927       28.28830
H         43.68457       64.48684       27.41454
N         37.73060       59.97118       25.06277
C         38.36902       58.70315       24.70401
C         38.13156       58.32068       23.23860
O         38.78615       57.41353       22.74520
C         37.78512       57.58564       25.60917
C         38.57936       56.27284       25.62704
C         39.93052       56.48446       26.24875
O         40.94610       56.23364       25.62152
O         40.02380       56.95616       27.50803
H         36.99733       59.96839       25.78478
H         39.45689       58.83284       24.89314
H         36.73710       57.38388       25.29023
H         37.73840       57.94688       26.65910
H         38.66987       55.84079       24.60960
H         38.02777       55.53695       26.25037
N         37.15743       58.93381       22.50885
C         36.76042       58.55999       21.15896
C         37.00713       59.70590       20.17754
O         36.78675       59.51626       18.98932
C         35.25471       58.18757       21.18435
C         34.92133       57.20060       22.32507
C         33.45108       56.95569       22.50069
O         33.06514       55.87125       22.88335
O         32.57752       57.97023       22.49573
H         36.59572       59.65691       22.95721
H         37.35070       57.68205       20.81742
H         34.93455       57.78315       20.20143
H         34.68550       59.12015       21.37153
H         35.24507       57.64107       23.28827
H         35.46553       56.24095       22.18771
N         37.45824       60.92575       20.59732
C         37.71844       62.02931       19.70228
H         38.54039       61.76395       19.00621
H         36.80128       62.29108       19.13556
H         38.03253       62.91923       20.29301
H         37.62365       61.10661       21.59069
Ca        30.32692       56.27247       22.07752
O         28.43572       56.50855       19.81253
H         27.98442       55.62748       19.81896
H         27.95643       57.03923       19.13156
O         30.77630       57.83693       19.58276
H         30.36338       58.42725       18.90446
H         31.63262       58.26820       19.81666
O         30.85315       57.86423       24.73601
H         30.00842       58.37224       24.81093
H         30.78450       57.15968       25.42619

Ca 1.0



