%chk=holoCaM.loop3.water3.frame383.chk
%nprocshared=20
%mem=10GB
%nosave
#b3lyp/svp scf=(tight,noincore,xqc) Test 
#IOP(5/87=12) Density=Current Pop=(MK,readradii) iop(6/33=2) iop(6/42=6)

holoCaM.loop3.water3.frame383 

   0  1 
C         80.09615       57.75289       71.15027
C         79.94612       56.30026       71.49405
O         80.16519       55.46779       70.62478
H         81.14331       57.94835       70.83334
H         79.41196       58.01276       70.31631
H         79.86644       58.40315       72.01984
N         79.61483       55.91135       72.75899
C         79.54970       54.50674       73.13695
C         78.35736       53.82820       72.48792
O         77.23394       54.25422       72.72021
C         79.50569       54.34230       74.66966
C         79.76674       52.91302       75.07601
O         79.87008       52.62618       76.25187
O         79.95732       51.96348       74.14098
H         79.48331       56.63448       73.48323
H         80.49830       54.04577       72.79713
H         78.54133       54.70952       75.08360
H         80.32176       54.95280       75.11185
N         78.53339       52.77710       71.63737
C         77.42555       52.17537       70.90471
C         76.42210       51.43620       71.78729
O         75.31328       51.22908       71.31436
C         77.92816       51.27079       69.75724
C         78.74970       52.08104       68.73566
C         79.08145       51.26560       67.48223
C         79.81840       52.14068       66.45636
N         80.02382       51.42235       65.19996
H         79.49273       52.45719       71.44618
H         76.86762       53.01265       70.42753
H         77.04123       50.85321       69.23276
H         78.53187       50.42516       70.15394
H         79.68964       52.45495       69.19446
H         78.14347       52.95715       68.41795
H         78.12930       50.91082       67.03115
H         79.70450       50.38261       67.74532
H         80.80046       52.46000       66.87230
H         79.21491       53.05254       66.24717
H         80.60371       50.56764       65.36012
H         79.09947       51.15300       64.78995
H         80.51660       52.05083       64.52481
N         76.71755       50.98967       73.04602
C         75.72070       50.35237       73.91665
C         75.60973       51.03082       75.28611
O         74.81456       50.56659       76.09282
C         75.95988       48.82767       74.04038
C         77.23612       48.40868       74.69906
O         77.46303       47.22265       74.87352
O         78.13761       49.31618       75.09047
H         77.68166       51.08761       73.38941
H         74.71186       50.43106       73.45663
H         75.93049       48.37509       73.02584
H         75.12263       48.39136       74.62839
N         76.32496       52.14946       75.61557
C         76.16762       52.84692       76.88562
C         76.73129       52.12110       78.09707
O         76.55846       52.63550       79.19235
H         76.94554       52.58375       74.92119
H         75.08618       53.05530       77.04344
H         76.69109       53.82545       76.83028
N         77.41888       50.94553       78.00088
C         77.91835       50.21995       79.17301
C         79.00668       50.97093       79.94497
O         79.35871       50.51961       81.02776
C         78.38519       48.79787       78.76723
C         79.68292       48.75583       77.99132
N         80.63933       47.84921       78.29593
O         79.86667       49.52477       77.06511
H         77.53944       50.52569       77.07555
H         77.04213       50.08061       79.84435
H         77.58379       48.34693       78.14181
H         78.48735       48.15830       79.67025
H         80.50388       47.16879       79.05730
H         81.51302       47.80920       77.75008
N         79.60232       52.09829       79.45153
C         80.61239       52.87379       80.15388
C         81.99123       52.80474       79.51071
O         82.88262       53.47387       80.00143
H         79.33279       52.44232       78.52470
H         80.73014       52.52488       81.20266
H         80.26936       53.93064       80.19158
N         82.25912       51.95588       78.47113
C         83.60640       51.70789       77.95214
C         83.63038       51.81715       76.43986
O         82.80690       51.18851       75.80236
C         83.99449       50.26622       78.32910
C         84.06685       50.08163       79.82509
C         83.13745       49.26241       80.48427
C         85.06711       50.72224       80.57464
C         83.20327       49.08482       81.86701
C         85.13858       50.53657       81.95883
C         84.20520       49.71568       82.60935
O         84.26233       49.52382       83.94226
H         81.50401       51.36779       78.10025
H         84.35979       52.39612       78.38995
H         84.98052       49.99592       77.89120
H         83.23699       49.57761       77.89518
H         82.35662       48.76605       79.93290
H         85.79757       51.35530       80.08646
H         82.47536       48.45254       82.35971
H         85.92021       51.02858       82.52327
H         84.94616       49.93203       84.49170
N         84.59835       52.54267       75.79560
C         84.69554       52.58859       74.33603
C         86.01774       51.97199       73.90449
O         87.06116       52.52889       74.20835
C         84.55819       54.05340       73.82024
C         83.25178       54.68518       74.35900
C         84.60317       54.09227       72.27852
C         83.03836       56.13917       73.93327
H         85.30220       53.04916       76.34939
H         83.87629       51.99541       73.88355
H         85.41313       54.65084       74.20745
H         83.27705       54.67618       75.46956
H         82.38759       54.07733       74.03320
H         85.54298       53.65261       71.90093
H         83.75258       53.53510       71.84239
H         84.57850       55.13141       71.89792
H         82.12061       56.53395       74.41588
H         83.90132       56.76285       74.24812
H         82.89561       56.22428       72.83718
N         86.04257       50.80546       73.18877
C         87.29021       50.21217       72.70332
C         87.90837       51.07348       71.60814
O         87.29626       52.04352       71.19538
C         87.03849       48.78080       72.18483
O         86.11987       48.79152       71.12878
H         85.15141       50.32321       73.00024
H         87.99982       50.13178       73.55573
H         86.63076       48.16705       73.01889
H         87.99660       48.32924       71.84349
H         86.02130       47.84891       70.83386
N         89.13249       50.78388       71.08805
C         89.72839       51.55184       69.99517
C         88.92183       51.37875       68.71888
O         88.54999       52.36918       68.10638
C         91.17338       51.11028       69.75414
H         89.65985       49.99175       71.48724
H         89.77385       52.62970       70.27378
H         91.62273       51.72213       68.94167
H         91.76936       51.27454       70.67748
H         91.22770       50.03795       69.47395
N         88.58650       50.12803       68.28874
C         87.78627       49.84983       67.09600
C         86.48745       50.62909       67.11158
O         86.16604       51.29935       66.14060
C         87.46018       48.34741       67.03772
H         88.88243       49.32983       68.87246
H         88.36153       50.11851       66.18342
H         86.88350       48.03343       67.93657
H         86.85437       48.11493       66.13615
H         88.39455       47.74936       67.00010
N         85.70749       50.59145       68.21891
C         84.42497       51.26432       68.36491
C         84.54778       52.76013       68.11140
O         83.83180       53.27343       67.26309
C         83.90476       50.96002       69.77920
C         82.48620       51.44496       70.04885
C         82.10748       51.03096       71.43581
O         81.83802       51.96463       72.35659
O         82.08698       49.85090       71.74758
H         86.06285       50.04178       69.01348
H         83.70802       50.82980       67.63313
H         84.59833       51.39293       70.53486
H         83.90531       49.85343       69.90310
H         81.77694       50.99196       69.32411
H         82.43621       52.55131       69.95856
N         85.45614       53.51142       68.79248
C         85.64685       54.93353       68.59248
H         86.68417       55.11780       68.24036
H         84.94142       55.35706       67.84808
H         85.50173       55.46364       69.55655
H         86.06555       53.05140       69.47380
Ca        80.74512       49.87320       74.45931
O         80.92862       46.81611       74.56168
H         80.01907       46.76674       74.94678
H         81.46929       46.21552       75.13306
O         79.07444       48.35918       72.26776
H         78.28777       48.34502       71.66776
H         79.76321       48.85158       71.75848
O         83.53897       48.46634       74.88266
H         83.19138       48.14255       75.75139
H         84.43258       48.83479       75.09589

Ca 1.0



