%chk=holoCaM-CaMKII.loop4.water2.frame284.chk
%nprocshared=20
%mem=10GB
%nosave
#b3lyp/svp scf=(tight,noincore,xqc) Test 
#IOP(5/87=12) Density=Current Pop=(MK,readradii) iop(6/33=2) iop(6/42=6)

holoCaM-CaMKII.loop4.water2.frame284 

   -3  1 
C         47.63104       20.11018       81.35290
C         47.57802       18.70762       81.86763
O         46.53755       18.28298       82.34639
H         48.63319       20.33972       80.93107
H         46.87079       20.25680       80.56020
H         47.44359       20.80323       82.19801
N         48.69250       17.93523       81.81607
C         48.76650       16.58517       82.34336
C         48.48104       16.58239       83.84375
O         49.29643       17.04849       84.62644
C         50.16066       16.03553       82.00264
C         50.47136       14.72485       82.61372
O         51.66789       14.55954       83.18813
O         49.63988       13.84285       82.67160
H         49.53589       18.33891       81.38046
H         48.00475       15.95835       81.82134
H         50.93666       16.74302       82.36685
H         50.26216       15.97183       80.89832
N         47.28013       16.11944       84.28800
C         46.84825       16.11200       85.68111
C         47.57005       15.00464       86.44736
O         48.20834       15.30203       87.44788
C         45.28641       15.96132       85.73537
C         44.54237       17.14629       85.04102
C         44.74238       15.77056       87.16191
C         44.73606       18.52893       85.67710
H         46.60302       15.81987       83.57618
H         47.08775       17.08826       86.15708
H         45.00945       15.04024       85.17645
H         43.45337       16.92281       85.04053
H         44.85098       17.22944       83.98286
H         43.63422       15.67250       87.12982
H         45.13977       14.83669       87.60907
H         45.00911       16.62096       87.82055
H         44.10845       19.26822       85.13386
H         44.41663       18.53773       86.73829
H         45.79000       18.86511       85.60148
N         47.45747       13.69620       86.06776
C         47.98534       12.58518       86.86868
C         49.49889       12.37907       86.79527
O         50.00355       11.58515       87.57829
C         47.28283       11.25626       86.50979
C         47.47720       10.78144       85.09173
O         46.96511        9.59069       84.72916
O         48.08660       11.44745       84.26931
H         46.86951       13.48874       85.24830
H         47.71944       12.79291       87.93010
H         46.19281       11.35815       86.69765
H         47.66920       10.46378       87.18676
N         50.28994       13.02831       85.90041
C         51.73403       12.83773       85.84759
C         52.16585       11.57014       85.12298
O         52.92444       10.79311       85.68298
H         49.86869       13.72041       85.26645
H         52.16666       12.90537       86.86895
H         52.17604       13.67800       85.28696
N         51.77100       11.34716       83.83602
C         52.27038       10.27607       82.96492
C         52.92598       10.85284       81.69787
O         53.31003       10.08578       80.82591
C         51.13550        9.25932       82.66999
C         49.87576        9.81846       82.05275
O         49.84901       11.07551       81.58646
O         48.85711        9.14705       82.04226
H         51.09731       12.00680       83.43258
H         53.06252        9.69011       83.48273
H         50.85168        8.83897       83.65828
H         51.51383        8.41725       82.04812
N         53.16014       12.19432       81.57434
C         53.88744       12.82363       80.48573
C         53.04781       13.22015       79.29127
O         53.61574       13.85116       78.41074
H         52.95933       12.80116       82.37081
H         54.76093       12.20548       80.18521
H         54.29439       13.78387       80.87378
N         51.72512       12.90563       79.15554
C         50.95436       13.30623       77.97603
C         49.65448       13.99299       78.32391
O         49.27568       14.04848       79.48041
C         50.69811       12.06985       77.09205
C         52.00630       11.65008       76.40847
C         51.81640       10.46740       75.50581
N         51.72517        9.22026       76.01913
O         51.78369       10.63076       74.29528
H         51.26504       12.32259       79.86876
H         51.51084       14.05901       77.37848
H         49.98127       12.32165       76.27982
H         50.25285       11.24742       77.69618
H         52.80871       11.41912       77.14042
H         52.34130       12.51600       75.79518
H         51.79950        9.06415       77.03508
H         51.62339        8.40645       75.39525
N         48.91564       14.55090       77.32124
C         47.60796       15.15424       77.51199
C         46.62094       14.31356       76.71735
O         46.74104       14.26615       75.49966
C         47.59662       16.63470       77.01077
C         46.25641       17.31662       77.32923
C         48.73316       17.47801       77.60993
H         49.28756       14.52160       76.35958
H         47.33405       15.14465       78.58957
H         47.74603       16.63795       75.90788
H         46.10574       17.36311       78.42658
H         46.23807       18.35499       76.93530
H         45.41097       16.76782       76.87353
H         48.63540       17.56555       78.71211
H         49.72148       17.03741       77.36348
H         48.71158       18.49916       77.16694
N         45.61992       13.62135       77.33375
C         44.57829       12.92369       76.58595
C         43.45275       13.89656       76.27717
O         43.56348       15.05772       76.64028
C         44.09586       11.62166       77.28797
C         43.16976       11.78877       78.47489
N         43.60800       12.23428       79.66912
O         42.00007       11.45810       78.36127
H         45.52661       13.70885       78.34673
H         45.00449       12.58415       75.61542
H         44.95831       10.97896       77.56498
H         43.52008       11.05574       76.52475
H         44.59844       12.43590       79.81680
H         42.95719       12.32525       80.46385
N         42.33959       13.51042       75.59648
C         41.25728       14.44203       75.29348
C         40.64856       15.02765       76.56132
O         40.33622       16.20966       76.56573
C         40.14464       13.76136       74.47784
C         39.10506       14.78386       74.07463
C         39.42587       15.80119       73.15923
C         37.81985       14.75020       74.63310
C         38.47269       16.76117       72.80777
C         36.87096       15.71475       74.29077
C         37.19312       16.72218       73.37148
O         36.28362       17.65378       73.02320
H         42.26234       12.53258       75.27983
H         41.67520       15.26663       74.67287
H         39.69586       12.95612       75.10091
H         40.55747       13.29032       73.55941
H         40.41265       15.84932       72.71584
H         37.55638       13.99024       75.34586
H         38.73055       17.53678       72.09819
H         35.88819       15.67801       74.74359
H         35.38360       17.64995       73.37917
N         40.38197       14.24363       77.64480
C         39.76902       14.76673       78.86406
C         40.69333       15.72778       79.61970
O         40.19690       16.53567       80.39244
C         39.33194       13.64583       79.83281
C         38.54307       12.47960       79.20486
C         37.40627       12.91025       78.32671
O         37.32940       12.47802       77.18843
O         36.45987       13.74929       78.78580
H         40.58898       13.24320       77.56964
H         38.85085       15.31289       78.54812
H         38.70562       14.11806       80.62219
H         40.22321       13.19999       80.32683
H         38.14865       11.85352       80.03138
H         39.22409       11.83419       78.60891
N         42.05072       15.66902       79.46809
C         42.98932       16.63549       80.04594
C         43.13581       17.85095       79.13367
O         43.69655       18.84822       79.56602
C         44.36336       15.95264       80.28037
C         44.33033       15.04513       81.52304
C         45.52189       14.13811       81.71383
O         45.68892       13.60546       82.79804
O         46.35481       13.81924       80.70644
H         42.43237       14.96181       78.82803
H         42.59146       17.02211       81.01173
H         45.16249       16.70462       80.45524
H         44.62355       15.40077       79.35932
H         43.42658       14.40710       81.54754
H         44.27910       15.73199       82.38966
N         42.63821       17.84891       77.86818
C         42.66378       18.98914       76.98323
H         42.09016       19.82699       77.43174
H         43.70809       19.29813       76.78027
H         42.17813       18.71609       76.01900
H         42.22510       16.99692       77.50226
Ca        48.08643       12.44515       81.19618
O         45.55068       10.75030       82.12556
H         45.31777        9.81488       81.90331
H         45.46537       10.79830       83.10924
O         47.09081       10.48273       79.34442
H         47.63899        9.84094       78.82829
H         46.30507        9.95869       79.63946

Ca 1.0



