%chk=holoCaM.loop2.water1.frame25.chk
%nprocshared=20
%mem=10GB
%nosave
#b3lyp/svp scf=(tight,noincore,xqc) Test 
#IOP(5/87=12) Density=Current Pop=(MK,readradii) iop(6/33=2) iop(6/42=6)

holoCaM.loop2.water1.frame25 

   -2  1 
C         83.01465       -9.60048        4.16258
C         82.62729      -10.64873        3.15595
O         81.69844      -11.39914        3.40798
H         83.86739       -8.98517        3.80262
H         82.15383       -8.92240        4.34270
H         83.30839      -10.08106        5.11822
N         83.30307      -10.75104        1.98034
C         82.96276      -11.69118        0.91521
C         83.03027      -13.13802        1.38242
O         84.07039      -13.55726        1.87104
C         83.91925      -11.46016       -0.27061
C         83.66642      -12.40401       -1.40426
O         84.56915      -13.12031       -1.80434
O         82.45051      -12.47066       -1.97849
H         84.08976      -10.10079        1.82453
H         81.93309      -11.47093        0.56119
H         84.97279      -11.57644        0.06983
H         83.78528      -10.42111       -0.64135
N         81.95174      -13.96567        1.21536
C         81.94282      -15.37095        1.61392
C         81.75771      -16.33604        0.44156
O         81.85053      -17.53230        0.68203
C         80.81357      -15.58984        2.62753
H         81.09477      -13.58122        0.78825
H         82.90749      -15.63351        2.09947
H         79.82980      -15.36445        2.15832
H         80.80041      -16.64181        2.98479
H         80.94773      -14.92194        3.50403
N         81.45575      -15.92025       -0.82701
C         81.20625      -16.84815       -1.93768
C         82.05530      -16.56779       -3.18035
O         81.93195      -17.30998       -4.14543
C         79.69768      -16.86057       -2.27500
C         79.10265      -15.55070       -2.72799
O         79.77665      -14.53879       -2.82515
O         77.79062      -15.49754       -3.02371
H         81.32873      -14.91589       -0.99977
H         81.45357      -17.88742       -1.62769
H         79.14681      -17.18491       -1.36557
H         79.51302      -17.61860       -3.06700
N         82.95172      -15.54321       -3.23041
C         83.82217      -15.27308       -4.36710
C         83.13790      -14.76131       -5.62501
O         83.85960      -14.49713       -6.57696
H         83.08385      -14.96202       -2.39828
H         84.40368      -16.18993       -4.60655
H         84.54918      -14.48731       -4.07002
N         81.78642      -14.59004       -5.73783
C         81.16441      -14.13041       -6.98163
C         81.41120      -12.64845       -7.29732
O         80.95223      -12.20249       -8.34032
C         79.65834      -14.48130       -7.02172
C         78.76508      -13.79781       -6.02141
N         77.43516      -14.04130       -6.06086
O         79.21823      -13.03112       -5.18643
H         81.17845      -14.85661       -4.95461
H         81.59990      -14.72816       -7.81389
H         79.54872      -15.57923       -6.88210
H         79.27405      -14.23228       -8.03476
H         77.03970      -14.68588       -6.76067
H         76.79290      -13.58357       -5.40435
N         82.14373      -11.83031       -6.48286
C         82.45151      -10.44203       -6.81157
C         81.28843       -9.47223       -6.67283
O         81.50225       -8.29372       -6.91778
H         82.56993      -12.20981       -5.62756
H         82.87576      -10.39287       -7.83843
H         83.23659      -10.08209       -6.11223
N         80.05014       -9.86964       -6.26547
C         78.92002       -8.96557       -6.07105
C         78.41724       -9.08918       -4.64787
O         78.12516      -10.19582       -4.23073
C         77.77494       -9.31068       -7.05197
C         78.18890       -9.07557       -8.50346
O         77.36908      -10.64985       -6.90658
H         79.88589      -10.86294       -6.07373
H         79.20512       -7.90701       -6.26202
H         76.91799       -8.62042       -6.85497
H         76.58069      -10.65732       -6.30278
H         78.48702       -8.01520       -8.64968
H         79.03797       -9.73424       -8.78220
H         77.33176       -9.29502       -9.17466
N         78.23811       -7.99211       -3.85874
C         77.67544       -8.06620       -2.50799
C         76.31112       -8.74995       -2.55509
O         75.44705       -8.32045       -3.30766
C         77.56602       -6.64151       -1.86921
C         78.94432       -5.93854       -1.69611
C         76.82592       -6.66738       -0.51832
C         79.92727       -6.64552       -0.75243
H         78.46582       -7.06951       -4.25691
H         78.34249       -8.67566       -1.86313
H         76.95516       -6.00584       -2.54871
H         78.76872       -4.91466       -1.29783
H         79.43929       -5.81796       -2.68042
H         75.78610       -7.03167       -0.64147
H         77.33924       -7.32250        0.21217
H         76.76088       -5.64027       -0.10320
H         80.19769       -7.65178       -1.13017
H         80.86057       -6.04803       -0.68480
H         79.51492       -6.73453        0.27339
N         76.04816       -9.79792       -1.71956
C         74.76123      -10.47734       -1.62493
C         74.06933      -10.02715       -0.34624
O         74.62779       -9.19466        0.35112
C         74.94862      -12.01474       -1.64845
C         75.51765      -12.54052       -2.94448
O         76.81328      -12.36834       -3.28969
O         74.79547      -13.18574       -3.68802
H         76.76583      -10.06436       -1.03047
H         74.09438      -10.18433       -2.46623
H         73.94349      -12.47143       -1.52482
H         75.57508      -12.36117       -0.79996
N         72.83221      -10.47556        0.01464
C         72.14428       -9.96425        1.19828
C         72.91961      -10.23750        2.49440
O         73.09774       -9.28495        3.23889
C         70.67821      -10.45052        1.29102
C         69.94068       -9.72791        2.39818
C         69.73474       -8.33674        2.32238
C         69.45948      -10.42903        3.51702
C         69.06817       -7.66227        3.34806
C         68.79498       -9.74820        4.54320
C         68.60045       -8.36666        4.45903
H         72.34459      -11.15260       -0.59277
H         72.07624       -8.86068        1.06915
H         70.63026      -11.54091        1.45128
H         70.15030      -10.24311        0.33481
H         70.08763       -7.77160        1.46897
H         69.60673      -11.49833        3.60137
H         68.91599       -6.59248        3.28099
H         68.43239      -10.29114        5.40610
H         68.08710       -7.84121        5.25388
N         73.43265      -11.46837        2.84385
C         74.16816      -11.73709        4.08903
C         75.43117      -10.90881        4.33806
O         76.06487      -11.10282        5.36681
C         74.59686      -13.20473        3.93776
C         73.47837      -13.78176        3.10932
C         73.27330      -12.68464        2.07193
H         73.45211      -11.60128        4.92887
H         75.50802      -13.26022        3.29462
H         74.81167      -13.72673        4.89441
H         73.67395      -14.78800        2.68195
H         72.57275      -13.83305        3.75682
H         74.05256      -12.70944        1.27921
H         72.27486      -12.83246        1.63063
N         75.87988      -10.00853        3.42640
C         77.11680       -9.24629        3.51012
C         76.76865       -7.77328        3.63165
O         77.21828       -7.14714        4.58055
C         77.93722       -9.59079        2.24897
C         78.40140      -11.06263        2.31877
C         78.56307      -11.65373        0.95706
O         79.38641      -11.13299        0.03569
O         77.85307      -12.59545        0.63847
H         75.34989       -9.88231        2.56303
H         77.72031       -9.51987        4.40529
H         78.82534       -8.93650        2.10927
H         77.27023       -9.43709        1.37141
H         77.62957      -11.68849        2.81392
H         79.31630      -11.13994        2.93281
N         75.91736       -7.16933        2.75406
C         75.45968       -5.80111        2.88984
H         74.35632       -5.80196        3.02370
H         75.91398       -5.28437        3.75994
H         75.70233       -5.23068        1.97213
H         75.53019       -7.70714        1.97324
Ca        78.46987      -11.61486       -1.94873
O         81.51624      -10.24471       -3.50951
H         82.39726      -10.60185       -3.78539
H         81.73656       -9.49779       -2.89926

Ca 1.0



