%chk=holoCaM.loop4.water3.frame346.chk
%nprocshared=20
%mem=10GB
%nosave
#b3lyp/svp scf=(tight,noincore,xqc) Test 
#IOP(5/87=12) Density=Current Pop=(MK,readradii) iop(6/33=2) iop(6/42=6)

holoCaM.loop4.water3.frame346 

   -3  1 
C          0.49522       47.12867       93.65909
C         -0.88340       47.55595       93.25320
O         -1.83133       47.13490       93.89703
H          1.27162       47.58992       93.01445
H          0.67819       47.44088       94.70944
H          0.57916       46.02410       93.58993
N         -1.07288       48.39059       92.18998
C         -2.38610       48.87669       91.77193
C         -2.26109       49.64932       90.46235
O         -1.50660       50.61013       90.39848
C         -3.00843       49.76111       92.87647
C         -4.36232       50.28043       92.49543
O         -4.58435       51.60774       92.46969
O         -5.26763       49.50747       92.22556
H         -0.24213       48.68691       91.65445
H         -3.05181       48.00072       91.60419
H         -2.33499       50.61729       93.09531
H         -3.13592       49.17896       93.81102
N         -2.99320       49.26753       89.37636
C         -2.90165       49.87996       88.05037
C         -4.20083       50.61368       87.69042
O         -4.20242       51.34457       86.71014
C         -2.61039       48.73710       87.00732
C         -1.33868       47.93294       87.39563
C         -2.50556       49.24633       85.55259
C         -1.15106       46.65083       86.57370
H         -3.64198       48.47822       89.49022
H         -2.08310       50.63311       88.04168
H         -3.47324       48.03410       87.05183
H         -1.41979       47.59812       88.45022
H         -0.43662       48.57564       87.30827
H         -3.44632       49.71659       85.21157
H         -1.66881       49.96779       85.44788
H         -2.35477       48.41144       84.84174
H         -0.97195       46.86179       85.50155
H         -0.26944       46.09291       86.95246
H         -2.04532       45.99822       86.67387
N         -5.35849       50.41510       88.38742
C         -6.66336       50.90190       87.93423
C         -7.45847       51.67436       88.97912
O         -8.49852       52.21229       88.62208
C         -7.49203       49.69686       87.42747
C         -7.73342       48.58995       88.44288
O         -7.23603       48.66396       89.70375
O         -8.36623       47.60743       88.09891
H         -5.33228       49.79457       89.19793
H         -6.52835       51.59562       87.07487
H         -6.94974       49.25036       86.56506
H         -8.47199       50.06410       87.05095
N         -7.07042       51.76098       90.28003
C         -7.82410       52.48181       91.29531
C         -9.19721       51.90827       91.62940
O         -9.83528       52.48145       92.50159
H         -6.18979       51.32484       90.57091
H         -7.93577       53.54171       90.97950
H         -7.23560       52.47156       92.23854
N         -9.73552       50.80765       91.01586
C        -11.06381       50.29007       91.35811
C        -11.12109       49.62208       92.73727
O        -12.19398       49.17077       93.11438
C        -11.62036       49.36137       90.24554
C        -10.87113       48.08644       90.00014
O         -9.76527       47.79377       90.69118
O        -11.26839       47.30489       89.15159
H         -9.22035       50.34762       90.25717
H        -11.77079       51.14923       91.36836
H        -11.64292       49.92990       89.29091
H        -12.66641       49.08962       90.50490
N        -10.03511       49.55136       93.56312
C        -10.08919       48.99650       94.90585
C        -10.01650       47.48530       94.95634
O         -9.94796       46.96799       96.06249
H         -9.14111       49.97200       93.28063
H        -10.97538       49.38524       95.45273
H         -9.19475       49.35642       95.45808
N         -9.98712       46.70803       93.83254
C         -9.79643       45.26341       93.87042
C         -8.54522       44.87395       93.03753
O         -7.51187       45.78650       93.29922
C        -11.05944       44.54416       93.35120
C        -12.30812       44.91664       94.17031
C        -13.54369       44.15720       93.74816
N        -14.72036       44.39275       94.37229
O        -13.49347       43.32672       92.85179
H        -10.08408       47.14346       92.91317
H         -9.62111       44.93190       94.91863
H        -10.92053       43.44670       93.43019
H        -11.22812       44.80350       92.28280
H        -12.50979       46.00346       94.05696
H        -12.12077       44.69834       95.24421
H        -14.78322       45.09020       95.12846
H        -15.57094       43.87866       94.09880
N         -8.10761       43.52503       93.42623
C         -6.84319       43.04858       92.83704
C         -7.11527       42.26744       91.55426
O         -7.90377       41.33217       91.58111
C         -6.10890       42.17924       93.89507
C         -4.72984       41.73052       93.39182
C         -5.91889       42.96035       95.20991
H         -8.85721       42.80124       93.36196
H         -6.16482       43.90268       92.62194
H         -6.71839       41.27572       94.11833
H         -4.08632       42.61144       93.17835
H         -4.22688       41.10936       94.16250
H         -4.82753       41.11969       92.47360
H         -5.39711       42.33065       95.96186
H         -5.32034       43.88149       95.03908
H         -6.89838       43.25036       95.64504
N         -6.44669       42.56728       90.40531
C         -6.61797       41.83746       89.15148
C         -5.48542       40.83773       88.99729
O         -4.60761       40.79851       89.84039
C         -6.64484       42.86757       87.99155
C         -6.92069       42.30638       86.62142
N         -8.09511       41.69246       86.35168
O         -6.08768       42.43398       85.73659
H         -5.71798       43.29092       90.44093
H         -7.56860       41.26180       89.17391
H         -5.67034       43.40697       87.97837
H         -7.44268       43.60536       88.18116
H         -8.81656       41.59204       87.07961
H         -8.28871       41.32834       85.40792
N         -5.47186       39.95076       87.96824
C         -4.38454       38.99507       87.74249
C         -3.06075       39.66563       87.36492
O         -2.03128       39.02820       87.54016
C         -4.80479       37.89674       86.72727
C         -5.56322       38.44512       85.53311
C         -6.92628       38.12212       85.38238
C         -4.96537       39.31500       84.61015
C         -7.67872       38.67535       84.34660
C         -5.72244       39.87085       83.57086
C         -7.08468       39.55769       83.44222
O         -7.83486       40.10399       82.46435
H         -6.29425       39.93904       87.35524
H         -4.19145       38.46770       88.70491
H         -5.49451       37.22123       87.27970
H         -3.93658       37.27560       86.41807
H         -7.41940       37.46125       86.08489
H         -3.92322       39.57579       84.70562
H         -8.73030       38.43067       84.26013
H         -5.25434       40.55482       82.87483
H         -7.47416       40.74090       81.83195
N         -2.99048       40.93156       86.85370
C         -1.71660       41.60602       86.57238
C         -1.08206       42.18094       87.84033
O         -0.03472       42.80573       87.74020
C         -1.93373       42.79165       85.59637
C         -2.47367       42.38431       84.21809
C         -1.53531       41.45780       83.49531
O         -1.91124       40.35062       83.14626
O         -0.27530       41.84829       83.22256
H         -3.86758       41.42789       86.64515
H         -1.00997       40.89379       86.09238
H         -0.96656       43.31815       85.43166
H         -2.63846       43.52030       86.05479
H         -2.59614       43.30172       83.60345
H         -3.47293       41.91670       84.32808
N         -1.69432       42.07365       89.05110
C         -1.29363       42.79842       90.24607
C         -0.90453       41.81605       91.33482
O          0.21871       41.88633       91.81310
C         -2.46981       43.71135       90.67347
C         -2.87155       44.66917       89.52888
C         -4.06987       45.52169       89.83495
O         -4.52015       46.25277       88.96864
O         -4.68028       45.46818       91.03096
H         -2.54702       41.52218       89.12663
H         -0.41868       43.45497       90.04051
H         -2.18962       44.29666       91.57656
H         -3.34846       43.07984       90.92264
H         -3.13821       44.07437       88.63006
H         -2.01305       45.32699       89.27847
N         -1.77228       40.85140       91.75447
C         -1.44970       39.85280       92.75331
H         -0.42370       39.97186       93.15795
H         -2.17056       39.92181       93.59314
H         -1.53282       38.84302       92.29789
H         -2.70708       40.79798       91.33619
Ca        -7.29827       47.21473       91.48999
O         -4.84401       46.81261       93.71360
H         -4.12017       46.30539       93.27364
H         -4.70981       46.64388       94.67901
O         -8.35540       45.04068       89.97606
H         -7.75817       45.53159       89.35751
H         -9.26948       45.23990       89.65542
O         -7.01141       48.50170       94.32681
H         -7.06183       47.86828       95.08618
H         -6.69046       49.34742       94.72736

Ca 1.0



