%chk=holoCaM.loop2.water2.frame477.chk
%nprocshared=20
%mem=10GB
%nosave
#b3lyp/svp scf=(tight,noincore,xqc) Test 
#IOP(5/87=12) Density=Current Pop=(MK,readradii) iop(6/33=2) iop(6/42=6)

holoCaM.loop2.water2.frame477 

   -2  1 
C        -10.65238       66.07658       74.26932
C        -11.99284       66.37621       74.87092
O        -12.10078       66.45299       76.08599
H         -9.88099       65.95743       75.05933
H        -10.71464       65.13004       73.69027
H        -10.35202       66.89951       73.58855
N        -13.07304       66.54421       74.05842
C        -14.43230       66.76738       74.54977
C        -14.84229       65.59277       75.42580
O        -15.05494       64.49913       74.92113
C        -15.35751       67.02328       73.33378
C        -16.84015       66.87624       73.53070
O        -17.43946       66.13452       72.77205
O        -17.55117       67.54541       74.45685
H        -12.90905       66.48793       73.04053
H        -14.44040       67.68434       75.17303
H        -15.09442       66.29220       72.53543
H        -15.12964       68.03595       72.93603
N        -14.84514       65.74585       76.78469
C        -15.05553       64.64749       77.71686
C        -16.51214       64.24624       77.75784
O        -16.82660       63.11947       77.40071
C        -14.56305       65.03490       79.12174
H        -14.57059       66.66047       77.17017
H        -14.42714       63.78591       77.39602
H        -13.48177       65.28939       79.08164
H        -15.10303       65.91881       79.52122
H        -14.69467       64.18555       79.82523
N        -17.46046       65.11783       78.21178
C        -18.87617       64.77113       78.30693
C        -19.55604       64.60444       76.94774
O        -20.73342       64.27095       76.93704
C        -19.64377       65.78740       79.18967
C        -19.66019       67.21231       78.70514
O        -20.35445       68.12993       79.40343
O        -19.04909       67.55504       77.70708
H        -17.15152       66.03948       78.55427
H        -18.95420       63.80035       78.84660
H        -19.19834       65.78311       80.20828
H        -20.69666       65.44362       79.28602
N        -18.89692       64.77931       75.76365
C        -19.52979       64.53994       74.47711
C        -20.49631       65.62884       74.03917
O        -21.07666       65.46890       72.97488
H        -17.89689       65.01659       75.75297
H        -20.04053       63.55317       74.50172
H        -18.74788       64.44661       73.70406
N        -20.74378       66.74723       74.78556
C        -21.75933       67.73148       74.40956
C        -21.44867       68.51547       73.13043
O        -22.36732       69.13322       72.61068
C        -22.09200       68.66869       75.59509
C        -20.96004       69.54642       76.07582
N        -21.15109       70.35607       77.14256
O        -19.87188       69.52668       75.52293
H        -20.26625       66.85837       75.68658
H        -22.69034       67.15273       74.21463
H        -22.41059       68.03263       76.45050
H        -22.94872       69.31975       75.31835
H        -22.05924       70.37830       77.62912
H        -20.38937       70.95466       77.49164
N        -20.20627       68.54179       72.56194
C        -19.92105       69.15378       71.26775
C        -18.98120       70.34681       71.31191
O        -18.60844       70.80563       70.24123
H        -19.42891       68.07100       73.03492
H        -20.85017       69.49288       70.76121
H        -19.46732       68.36773       70.62721
N        -18.60896       70.95168       72.47664
C        -17.78235       72.16292       72.53189
C        -16.57393       71.95888       73.43892
O        -16.40009       70.87486       73.97513
C        -18.65926       73.35425       73.00632
C        -19.72285       73.70056       71.95348
O        -19.26941       73.04347       74.23266
H        -18.97914       70.58765       73.36533
H        -17.37939       72.42675       71.52877
H        -18.02438       74.25831       73.12891
H        -19.76530       73.85125       74.52789
H        -20.31417       74.58006       72.28605
H        -19.23206       73.96478       70.99156
H        -20.41521       72.84999       71.78672
N        -15.69466       72.98154       73.65870
C        -14.54759       72.89725       74.55714
C        -14.77762       73.84603       75.72070
O        -14.97777       75.03194       75.49324
C        -13.22133       73.25593       73.81266
C        -12.96914       72.26995       72.64405
C        -12.02889       73.25474       74.79713
C        -11.70773       72.58619       71.83220
H        -15.85585       73.88627       73.19163
H        -14.43326       71.86782       74.95781
H        -13.31481       74.28367       73.39517
H        -13.83059       72.31638       71.94454
H        -12.89122       71.23104       73.03326
H        -12.19028       73.98529       75.61306
H        -11.88215       72.24577       75.23559
H        -11.08988       73.57659       74.30682
H        -10.78831       72.46416       72.44051
H        -11.62813       71.87937       70.98048
H        -11.75148       73.62225       71.43462
N        -14.67778       73.39205       77.00373
C        -14.73167       74.26076       78.17658
C        -13.30295       74.39197       78.71302
O        -12.41103       73.79259       78.13102
C        -15.74079       73.65721       79.18397
C        -16.25363       74.56845       80.27102
O        -15.99530       75.76020       80.28750
O        -17.10302       74.07140       81.18971
H        -14.44936       72.39874       77.15994
H        -15.08096       75.27212       77.87507
H        -15.29636       72.73970       79.62732
H        -16.65212       73.35918       78.62982
N        -12.97376       75.19496       79.76130
C        -11.58780       75.43330       80.14335
C        -10.82570       74.17372       80.55061
O         -9.74204       73.99133       80.01214
C        -11.47176       76.50127       81.25075
C        -10.02428       76.90693       81.43577
C         -9.33213       77.54752       80.38897
C         -9.34788       76.63710       82.63660
C         -7.99006       77.90261       80.53928
C         -8.00189       76.99299       82.78144
C         -7.32406       77.62375       81.73388
H        -13.70235       75.71768       80.25485
H        -11.08824       75.86081       79.24537
H        -11.90381       76.10588       82.19260
H        -12.04865       77.40959       80.97189
H         -9.82940       77.77216       79.45356
H         -9.85583       76.14111       83.45376
H         -7.46675       78.39153       79.72716
H         -7.48162       76.77628       83.70491
H         -6.28272       77.89638       81.84631
N        -11.26194       73.26844       81.48674
C        -10.44016       72.15160       81.93753
C        -10.17091       71.14764       80.83375
O         -9.22894       70.37762       80.96024
C        -11.23583       71.56340       83.10721
C        -12.66462       71.84797       82.69178
C        -12.55607       73.27005       82.13962
H         -9.45884       72.51882       82.31225
H        -10.99972       70.50827       83.36465
H        -11.04809       72.19336       84.00602
H        -12.90859       71.15922       81.85006
H        -13.43441       71.71836       83.48158
H        -13.40846       73.41823       81.44740
H        -12.55603       74.03234       82.94622
N        -10.94839       71.09805       79.72098
C        -10.66248       70.22631       78.59309
C         -9.47384       70.78388       77.83846
O         -8.48035       70.08684       77.69102
C        -11.90397       70.11813       77.69351
C        -13.05745       69.46400       78.47965
C        -14.32967       69.39561       77.70825
O        -14.39978       69.82801       76.56957
O        -15.41728       68.86353       78.29663
H        -11.77805       71.70635       79.66911
H        -10.44031       69.19448       78.95042
H        -11.67351       69.49405       76.80134
H        -12.20962       71.12917       77.34905
H        -13.28129       70.04329       79.39863
H        -12.76603       68.43264       78.77472
N         -9.50423       72.06221       77.36435
C         -8.40080       72.70083       76.67934
H         -7.52794       72.02650       76.56157
H         -8.73496       73.03389       75.67478
H         -8.08102       73.59185       77.26118
H        -10.34631       72.63145       77.51446
Ca       -16.93373       69.02479       76.00320
O        -17.74466       70.32052       79.53875
H        -18.70103       70.14422       79.35805
H        -17.72972       71.24330       79.89608
O        -17.82671       71.89759       76.93544
H        -18.09107       71.62745       76.02265
H        -18.52540       72.54038       77.21673

Ca 1.0



