%chk=holoCaM-CaMKII.loop4.water2.frame172.chk
%nprocshared=20
%mem=10GB
%nosave
#b3lyp/svp scf=(tight,noincore,xqc) Test 
#IOP(5/87=12) Density=Current Pop=(MK,readradii) iop(6/33=2) iop(6/42=6)

holoCaM-CaMKII.loop4.water2.frame172 

   -3  1 
C         94.44450       44.24898       14.03128
C         93.30053       43.43011       14.55084
O         93.20531       42.26390       14.20763
H         95.40398       43.77628       14.32645
H         94.38476       44.30621       12.92469
H         94.42124       45.28238       14.43842
N         92.38651       43.98447       15.38957
C         91.24921       43.26162       15.94743
C         90.32094       42.76526       14.83959
O         89.90844       43.57276       14.01887
C         90.49933       44.20243       16.90964
C         89.40057       43.54332       17.67681
O         88.65467       44.29155       18.50028
O         89.18808       42.34743       17.58631
H         92.51730       44.97349       15.65548
H         91.62945       42.41228       16.54451
H         90.07710       45.05431       16.33528
H         91.21259       44.60396       17.66346
N         89.93601       41.45210       14.77188
C         89.08867       40.90843       13.70741
C         87.73241       40.51217       14.28057
O         86.73272       41.09980       13.89107
C         89.80062       39.70916       13.00137
C         91.19137       40.14483       12.47545
C         88.91843       39.14879       11.86926
C         91.99281       39.03143       11.79831
H         90.25184       40.80788       15.50949
H         88.90292       41.69209       12.93931
H         89.96559       38.89472       13.74097
H         91.79508       40.47652       13.34105
H         91.08557       40.99518       11.76775
H         87.93608       38.81598       12.26394
H         88.75055       39.91925       11.08765
H         89.38209       38.25446       11.40692
H         92.12043       38.16889       12.48581
H         91.50350       38.69423       10.86269
H         92.99778       39.41915       11.52692
N         87.62358       39.52359       15.21264
C         86.35463       39.11622       15.83187
C         85.67992       40.22400       16.66896
O         84.57123       39.99810       17.13437
C         86.57108       37.86501       16.72581
C         87.56084       38.12618       17.83174
O         88.22026       39.29958       17.84777
O         87.75066       37.29665       18.70561
H         88.48565       39.02215       15.46998
H         85.65140       38.83203       15.01816
H         86.93201       37.00958       16.11539
H         85.59427       37.57505       17.17254
N         86.26617       41.43557       16.89390
C         85.62269       42.53593       17.59566
C         85.38699       42.30769       19.07728
O         84.24098       42.39289       19.49554
H         87.18835       41.62973       16.49392
H         84.66212       42.77095       17.08534
H         86.26463       43.43809       17.50946
N         86.42489       42.09567       19.94444
C         86.25875       42.06741       21.40238
C         87.08123       43.15583       22.09054
O         87.22922       43.10437       23.30040
C         86.50099       40.65507       21.98711
C         87.89317       40.08327       22.00937
O         88.97299       40.74936       21.58062
O         88.04371       38.94038       22.40856
H         87.37601       42.00470       19.56201
H         85.19928       42.27460       21.66913
H         85.84836       39.95399       21.42269
H         86.15841       40.65486       23.04452
N         87.56889       44.22262       21.39339
C         88.33149       45.31549       21.98098
C         89.78310       44.99015       22.29495
O         90.47451       45.90191       22.72917
H         87.30880       44.32294       20.40719
H         87.80686       45.70178       22.88165
H         88.36790       46.14325       21.23863
N         90.33268       43.75496       22.09597
C         91.74441       43.45238       22.33754
C         92.40503       42.89672       21.07655
O         91.71986       42.65553       20.08985
C         91.90295       42.42172       23.48203
C         91.40460       42.88881       24.86073
C         89.90478       42.92979       24.98178
N         89.26488       44.07148       25.32765
O         89.26241       41.90618       24.79835
H         89.73704       42.99633       21.74985
H         92.29614       44.37456       22.62403
H         92.98792       42.22045       23.60674
H         91.41391       41.46079       23.21500
H         91.86145       43.87175       25.10647
H         91.75635       42.15416       25.61669
H         89.78817       44.94171       25.49811
H         88.23989       44.08639       25.43441
N         93.75239       42.66107       21.05210
C         94.45965       42.04814       19.92941
C         95.14648       40.78042       20.42101
O         96.05724       40.86136       21.23510
C         95.46262       43.05911       19.30483
C         96.37891       42.40883       18.25223
C         94.69839       44.22175       18.64897
H         94.31322       42.91919       21.87933
H         93.74179       41.76275       19.13263
H         96.11561       43.46529       20.10945
H         97.07576       43.16728       17.83434
H         97.00462       41.61554       18.71155
H         95.78709       41.96740       17.42314
H         94.05780       43.84384       17.82161
H         94.05257       44.74123       19.38659
H         95.40880       44.96533       18.22925
N         94.72320       39.56219       19.97930
C         95.29641       38.28800       20.41581
C         96.67178       38.07950       19.77177
O         97.03913       38.84408       18.89312
C         94.27583       37.16826       20.04049
C         94.46496       35.79487       20.65120
N         93.55167       35.29917       21.52061
O         95.41065       35.09770       20.33171
H         93.90642       39.54104       19.35180
H         95.37852       38.31615       21.52512
H         94.19895       37.07570       18.93640
H         93.28903       37.52486       20.39642
H         92.72451       35.84693       21.79856
H         93.66916       34.35484       21.91721
N         97.47884       37.04880       20.15016
C         98.73071       36.68456       19.47732
C         98.47281       36.33579       18.01888
O         99.18043       36.82399       17.15023
C         99.35230       35.45802       20.18246
C        100.60275       34.95567       19.49433
C        101.74747       35.76437       19.39223
C        100.62630       33.66274       18.94262
C        102.89502       35.28494       18.75074
C        101.77269       33.18685       18.30197
C        102.91261       33.99651       18.20493
O        104.02659       33.54763       17.59202
H         97.17651       36.47647       20.94933
H         99.45503       37.52732       19.53355
H         98.59240       34.64545       20.20567
H         99.59503       35.71761       21.23516
H        101.75354       36.76339       19.80901
H         99.75558       33.02150       19.00385
H        103.77237       35.91534       18.67839
H        101.77269       32.18881       17.88191
H        104.07929       32.66136       17.20603
N         97.46389       35.48535       17.69248
C         97.09865       35.11488       16.32967
C         96.77932       36.35815       15.51365
O         97.36164       36.53297       14.45231
C         95.89088       34.14468       16.35208
C         96.25595       32.80148       17.01912
C         95.08135       31.86837       17.07715
O         94.53541       31.49651       16.05088
O         94.63902       31.41766       18.26742
H         96.90136       35.11258       18.46446
H         97.94618       34.58395       15.84087
H         95.56860       33.93622       15.30795
H         95.03899       34.61746       16.89146
H         96.61489       32.96313       18.05641
H         97.07374       32.31416       16.44580
N         95.89089       37.28567       15.97000
C         95.56196       38.51243       15.23853
C         96.77754       39.40360       15.00793
O         96.74476       40.19993       14.08002
C         94.47811       39.31093       15.99136
C         93.14365       38.54473       16.01856
C         92.08785       39.21661       16.84464
O         90.97700       38.71872       16.91207
O         92.34746       40.34259       17.53137
H         95.44269       37.10834       16.88050
H         95.16779       38.22532       14.23764
H         94.30484       40.28774       15.49117
H         94.84179       39.51218       17.02369
H         93.28177       37.52839       16.43840
H         92.77492       38.44956       14.97475
N         97.87422       39.33505       15.81106
C         99.07718       40.11819       15.61664
H         99.94062       39.42970       15.49316
H         99.02072       40.76949       14.72018
H         99.25429       40.75233       16.51027
H         97.86194       38.70040       16.61138
Ca        89.36251       40.25806       19.47516
O         90.82944       37.30596       19.45285
H         90.98633       36.57777       18.80040
H         90.03766       37.01371       19.96908
O         92.10306       39.34115       21.78615
H         91.13515       39.45430       21.62289
H         92.15536       38.58948       22.42783

Ca 1.0



