%chk=holoCaM.loop4.water3.frame327.chk
%nprocshared=20
%mem=10GB
%nosave
#b3lyp/svp scf=(tight,noincore,xqc) Test 
#IOP(5/87=12) Density=Current Pop=(MK,readradii) iop(6/33=2) iop(6/42=6)

holoCaM.loop4.water3.frame327 

   -3  1 
C        100.08775       19.63467       92.19358
C        100.96189       19.14773       93.30567
O        100.68983       19.48462       94.45020
H         99.26715       20.26900       92.59664
H        100.68390       20.23296       91.47598
H         99.63560       18.76345       91.67615
N        102.04339       18.35044       93.04847
C        102.87378       17.82375       94.12731
C        104.18346       17.18187       93.64206
O        104.34561       16.85301       92.47615
C        102.03604       16.81037       94.95030
C        102.74521       16.24307       96.13619
O        102.92689       15.03893       96.21620
O        103.16006       17.05461       97.12659
H        102.27287       18.13517       92.06704
H        103.17299       18.69632       94.75251
H        101.73041       15.98142       94.27505
H        101.11418       17.28506       95.33928
N        105.19721       17.07092       94.54562
C        106.54622       16.55052       94.33256
C        106.88878       15.58262       95.46974
O        107.33029       14.47391       95.20441
C        107.58445       17.73039       94.34773
C        107.33350       18.69477       93.15850
C        109.04027       17.20523       94.31511
C        108.21711       19.94985       93.17656
H        104.99694       17.45175       95.46907
H        106.63465       16.03929       93.34721
H        107.46288       18.29752       95.29542
H        106.28115       19.03845       93.18675
H        107.48944       18.15784       92.19743
H        109.23561       16.63934       93.38024
H        109.77197       18.03299       94.39906
H        109.25160       16.54668       95.18271
H        109.29101       19.70236       93.05761
H        107.93951       20.61065       92.32853
H        108.07521       20.51273       94.12337
N        106.77252       15.99661       96.76891
C        107.35653       15.32544       97.92985
C        106.37286       14.57579       98.82085
O        106.83159       13.87712       99.71511
C        108.09549       16.39404       98.78172
C        107.18365       17.49381       99.34186
O        105.84692       17.49123       99.09374
O        107.67127       18.38534      100.01548
H        106.37264       16.92394       96.92558
H        108.08259       14.56256       97.56947
H        108.87340       16.86931       98.14501
H        108.61164       15.89158       99.62848
N        105.02595       14.66889       98.66628
C        104.07290       13.93326       99.48740
C        104.05088       14.29829      100.96891
O        103.29341       13.65882      101.68553
H        104.65962       15.25612       97.91322
H        104.29136       12.84765       99.38904
H        103.04901       14.10780       99.09014
N        104.82417       15.28601      101.51722
C        104.82839       15.59472      102.95167
C        103.51595       16.19223      103.47593
O        103.44481       16.46237      104.66719
C        106.04150       16.48989      103.32957
C        106.07851       17.86929      102.73528
O        105.21435       18.24988      101.97326
O        107.09260       18.69851      103.04405
H        105.47389       15.80137      100.91457
H        104.99984       14.64162      103.49898
H        106.97291       15.96837      103.02223
H        106.06505       16.60414      104.43432
N        102.42963       16.40016      102.67746
C        101.15937       16.90362      103.17421
C        101.07946       18.41343      103.20322
O         99.98981       18.91362      103.44525
H        102.45921       16.13587      101.68628
H        100.89362       16.44295      104.15066
H        100.37559       16.58598      102.45090
N        102.15192       19.20739      102.91036
C        102.04093       20.64426      102.70211
C        102.49423       20.99068      101.26398
O        102.13131       19.96893      100.37267
C        102.89626       21.43785      103.70894
C        102.42423       21.26131      105.15657
C        103.17500       22.19219      106.07757
N        104.51808       22.10258      106.21945
O        102.55941       23.04600      106.69889
H        103.06790       18.78207      102.75166
H        100.97944       20.96206      102.81087
H        102.82004       22.51970      103.47097
H        103.96330       21.14085      103.60946
H        102.56317       20.20939      105.48462
H        101.34019       21.50737      105.21128
H        105.05887       21.39095      105.70800
H        105.02058       22.75171      106.84335
N        101.83708       22.23625      100.83895
C        102.27749       22.72832       99.52489
C        103.44048       23.71737       99.65079
O        103.72264       24.20754      100.73551
C        101.02352       23.26855       98.77452
C        100.38664       24.47400       99.48165
C        101.28829       23.60808       97.30715
H        101.81848       22.98779      101.56427
H        102.64962       21.86421       98.93173
H        100.27376       22.44468       98.76913
H         99.46449       24.78444       98.94495
H        100.09316       24.21385      100.51940
H        101.09060       25.33210       99.50715
H        101.69607       22.72039       96.78393
H        100.33909       23.88631       96.80228
H        101.98174       24.46520       97.21903
N        104.21149       23.98096       98.56360
C        105.37674       24.85584       98.54711
C        105.21604       25.86336       97.41456
O        104.23910       25.79698       96.68691
C        106.62120       23.95008       98.35206
C        107.95777       24.64923       98.33234
N        108.38471       25.37381       99.39181
O        108.67613       24.54016       97.35014
H        103.99073       23.49013       97.69223
H        105.47180       25.40022       99.51138
H        106.50332       23.38274       97.40463
H        106.65075       23.21590       99.18478
H        107.80226       25.47300      100.23482
H        109.30422       25.83946       99.36548
N        106.13342       26.84047       97.20496
C        106.08202       27.74298       96.05799
C        106.26300       26.97430       94.74304
O        105.45968       27.17500       93.84237
C        107.03458       28.94801       96.26903
C        108.46565       28.61353       96.61882
C        108.92293       28.80463       97.93707
C        109.35602       28.12909       95.65462
C        110.23620       28.48639       98.28654
C        110.67575       27.81975       96.00438
C        111.11610       27.98779       97.32396
O        112.37884       27.67510       97.67663
H        106.89379       26.94445       97.88727
H        105.07583       28.22174       96.01714
H        106.60128       29.50166       97.13256
H        106.99735       29.64770       95.40640
H        108.25764       29.18449       98.70291
H        109.02743       27.99804       94.63378
H        110.56714       28.62417       99.30816
H        111.35701       27.44582       95.25178
H        113.01437       27.31310       97.04298
N        107.24161       26.03133       94.57994
C        107.42500       25.25123       93.34510
C        106.26119       24.31672       93.01009
O        106.33368       23.67711       91.96865
C        108.69298       24.35583       93.42816
C        110.01289       25.12372       93.54438
C        110.25908       26.00932       92.35345
O        110.40539       27.33765       92.51384
O        110.33570       25.52690       91.23454
H        107.88577       25.87111       95.36467
H        107.54204       25.95994       92.49653
H        108.77263       23.72738       92.51273
H        108.59465       23.66619       94.29629
H        110.84694       24.39286       93.61433
H        110.01027       25.71222       94.47500
N        105.17904       24.15558       93.82109
C        104.11682       23.19342       93.55354
C        102.83925       23.94465       93.23556
O        102.31857       23.78437       92.14056
C        103.95871       22.25455       94.76898
C        105.28164       21.55476       95.12351
C        105.17476       20.71570       96.36582
O        105.44774       19.53428       96.32914
O        104.83691       21.26286       97.54346
H        105.10622       24.70086       94.68447
H        104.36454       22.56079       92.67169
H        103.16980       21.49722       94.56509
H        103.64799       22.85907       95.63509
H        106.07332       22.30874       95.31002
H        105.59485       20.92984       94.26466
N        102.29956       24.81349       94.13455
C        101.12762       25.62349       93.87729
H        100.34142       25.38412       94.62245
H        101.40138       26.69546       93.98032
H        100.71761       25.46539       92.85859
H        102.74836       24.92823       95.04766
Ca       103.98641       18.74160       99.67086
O        101.85196       19.59400       97.41193
H        102.21060       20.24661       96.76063
H        100.95598       19.94143       97.64848
O        105.58271       21.23851      100.65860
H        106.15430       20.46606      100.42485
H        106.08103       21.70755      101.37336
O        101.49910       17.07990       99.43590
H        100.74562       17.71138       99.54860
H        101.08438       16.18223       99.47234

Ca 1.0



