%chk=holoCaM-CaMKII.loop3.water3.frame225.chk
%nprocshared=20
%mem=10GB
%nosave
#b3lyp/svp scf=(tight,noincore,xqc) Test 
#IOP(5/87=12) Density=Current Pop=(MK,readradii) iop(6/33=2) iop(6/42=6)

holoCaM-CaMKII.loop3.water3.frame225 

   0  1 
C         35.37295       38.46286       41.91027
C         36.08643       38.24834       40.61198
O         35.58859       37.52319       39.76360
H         34.41747       37.89766       41.93261
H         36.01875       38.10575       42.74053
H         35.16199       39.54346       42.05019
N         37.27882       38.86240       40.38941
C         38.05881       38.66017       39.17549
C         38.50819       37.20139       39.12347
O         39.23377       36.76601       40.00592
C         39.23070       39.66602       39.17520
C         40.12492       39.70201       37.96468
O         41.32408       39.55297       38.11976
O         39.66542       40.10601       36.76167
H         37.63681       39.50016       41.11871
H         37.40859       38.90014       38.31230
H         39.85463       39.48234       40.07713
H         38.80235       40.68982       39.26995
N         38.05636       36.38283       38.13125
C         38.33493       34.95228       38.01710
C         39.16207       34.61823       36.78875
O         39.56797       33.46839       36.67905
C         37.01895       34.15035       37.93044
C         36.27373       34.03632       39.26172
C         34.99910       33.19395       39.07060
C         34.37481       32.72159       40.39139
N         33.94215       33.82524       41.24565
H         37.46661       36.80230       37.41559
H         38.93639       34.60462       38.88564
H         37.25690       33.10481       37.63235
H         36.36828       34.58789       37.13961
H         36.01704       35.03486       39.66611
H         36.95114       33.52200       39.97757
H         35.25671       32.26779       38.51088
H         34.26071       33.76479       38.46442
H         35.11276       32.09314       40.93840
H         33.49687       32.08136       40.15039
H         33.23592       34.41190       40.74605
H         33.50449       33.42459       42.10694
H         34.75918       34.40838       41.53500
N         39.49977       35.54959       35.85567
C         40.44783       35.27357       34.78527
C         41.77308       35.92288       35.12978
O         42.79379       35.26424       34.98432
C         39.90109       35.57630       33.37131
C         39.45903       36.97862       33.05543
O         39.05985       37.22463       31.92912
O         39.46884       37.95897       33.97351
H         39.15185       36.51005       35.95752
H         40.66994       34.18317       34.73715
H         39.02826       34.91115       33.18962
H         40.69305       35.29915       32.64054
N         41.82980       37.14969       35.72470
C         43.05734       37.73137       36.23217
C         43.39851       39.03760       35.56104
O         44.40411       39.62086       35.94112
H         40.96942       37.68823       35.88643
H         43.92024       37.04715       36.09700
H         42.94244       37.88901       37.32413
N         42.65828       39.54803       34.53047
C         43.08367       40.73361       33.79479
C         43.08427       42.00285       34.63906
O         43.66470       42.98593       34.20106
C         42.26527       40.90733       32.49897
C         40.84972       41.38149       32.72520
N         40.39707       42.49190       32.09932
O         40.10006       40.75574       33.45865
H         41.83366       39.03298       34.19570
H         44.13018       40.52585       33.47715
H         42.24032       39.93185       31.96494
H         42.79039       41.62987       31.83884
H         41.00506       43.02909       31.46308
H         39.42509       42.80236       32.23370
N         42.45650       42.05757       35.85100
C         42.53074       43.19675       36.74740
C         41.19761       43.87043       37.00551
O         41.19278       44.75657       37.84919
H         41.92426       41.24571       36.18551
H         43.22859       43.97491       36.36728
H         42.94501       42.83209       37.71270
N         40.05251       43.58159       36.30495
C         38.81214       44.34389       36.49175
C         37.60877       43.44031       36.72596
O         37.35315       42.58561       35.89487
C         38.46857       45.18800       35.24390
C         39.62468       45.86575       34.54889
C         40.52555       46.71442       35.21367
C         39.78336       45.64798       33.16967
C         41.57188       47.31989       34.50133
C         40.81443       46.25589       32.46319
C         41.71575       47.09493       33.12500
O         42.71475       47.69207       32.44527
H         40.07836       42.86667       35.56341
H         38.92837       45.06217       37.33349
H         37.71755       45.94886       35.55077
H         37.97217       44.53857       34.49120
H         40.42552       46.90319       36.27467
H         39.09273       45.01629       32.62897
H         42.26884       47.96884       35.01572
H         40.90387       46.07451       31.39947
H         42.82803       47.56660       31.49131
N         36.76746       43.62667       37.77627
C         35.50117       42.89664       37.92516
C         34.51456       43.32914       36.83065
O         34.31185       44.52521       36.66505
C         34.88540       43.16569       39.33286
C         35.85916       42.67458       40.44124
C         33.51506       42.46263       39.47211
C         35.41611       43.04770       41.85579
H         37.01316       44.35354       38.46537
H         35.68618       41.79904       37.86743
H         34.73027       44.26250       39.44306
H         36.85807       43.13585       40.30511
H         35.98836       41.57238       40.37094
H         32.80009       42.82469       38.70594
H         33.62620       41.36212       39.36124
H         33.04182       42.68276       40.44802
H         35.31002       44.15033       41.94153
H         34.46079       42.56034       42.13132
H         36.18612       42.70924       42.58040
N         33.80030       42.40612       36.11392
C         32.77272       42.74851       35.12138
C         31.38277       42.33107       35.59021
O         31.25575       41.79698       36.68083
C         33.09929       42.07920       33.77768
O         33.08065       40.68074       33.91010
H         33.95370       41.40804       36.32008
H         32.74125       43.84793       34.95712
H         34.08500       42.45033       33.43077
H         32.36850       42.36761       32.99393
H         33.94218       40.33768       33.56080
N         30.28351       42.57100       34.81774
C         28.91408       42.22480       35.20099
C         28.71687       40.72739       35.35324
O         28.26162       40.29566       36.40159
C         27.91995       42.74209       34.15401
H         30.42358       43.05448       33.91614
H         28.66653       42.72932       36.16232
H         28.00751       43.84474       34.06046
H         28.11059       42.28407       33.15970
H         26.87995       42.49969       34.46348
N         29.03355       39.87833       34.33273
C         28.84192       38.42916       34.39153
C         29.49359       37.84619       35.62311
O         28.85796       37.08473       36.33976
C         29.43323       37.77088       33.13631
H         29.45442       40.28302       33.48250
H         27.75550       38.19267       34.41790
H         30.52299       37.97693       33.05544
H         29.28245       36.67010       33.17031
H         28.92965       38.16275       32.22733
N         30.75919       38.20722       35.94731
C         31.46961       37.71393       37.11907
C         30.69772       38.02577       38.39099
O         30.37139       37.09839       39.11920
C         32.90548       38.27921       37.11991
C         33.64927       37.71575       35.89071
C         35.06910       38.14289       35.81080
O         35.41678       39.41117       35.54493
O         35.93785       37.29565       35.85784
H         31.22597       38.88925       35.32969
H         31.55694       36.60544       37.05403
H         33.43331       37.94769       38.04079
H         32.88997       39.39139       37.10756
H         33.16956       38.00248       34.93499
H         33.62672       36.60567       35.96386
N         30.31575       39.29278       38.69671
C         29.49720       39.59466       39.85138
H         28.53473       39.04146       39.78440
H         30.02593       39.30712       40.78360
H         29.27097       40.68190       39.88300
H         30.57655       40.06051       38.07302
Ca        37.54990       39.88340       36.04374
O         36.58743       41.79954       33.39860
H         36.46266       42.78183       33.41079
H         36.04877       41.49123       32.62843
O         35.74616       38.41384       32.67482
H         35.02018       37.78155       32.90553
H         36.51937       37.83386       32.46529
O         37.98040       40.27696       31.41759
H         38.78116       39.70438       31.33031
H         37.70575       40.46730       30.48666

Ca 1.0



