%chk=holoCaM.loop4.water3.frame60.chk
%nprocshared=20
%mem=10GB
%nosave
#b3lyp/svp scf=(tight,noincore,xqc) Test 
#IOP(5/87=12) Density=Current Pop=(MK,readradii) iop(6/33=2) iop(6/42=6)

holoCaM.loop4.water3.frame60 

   -3  1 
C         78.77099        1.98721       27.46731
C         77.73898        2.42598       28.46060
O         76.79969        1.68122       28.70077
H         79.75064        1.89676       27.98250
H         78.50692        0.99358       27.04282
H         78.85156        2.72216       26.64140
N         77.85124        3.62948       29.09326
C         76.95202        4.02073       30.17112
C         76.94718        5.52511       30.39842
O         77.99992        6.09390       30.65656
C         77.39376        3.30603       31.46163
C         76.48978        3.64255       32.60616
O         75.29972        3.38815       32.53555
O         76.98511        4.24201       33.70568
H         78.64812        4.24084       28.85651
H         75.91665        3.70396       29.91624
H         78.43528        3.60458       31.71482
H         77.38282        2.20706       31.31248
N         75.76877        6.21937       30.37292
C         75.66067        7.64789       30.66682
C         74.77228        7.94437       31.88799
O         74.69707        9.10638       32.25683
C         75.12986        8.42939       29.42175
C         73.68158        8.01482       29.04993
C         76.08801        8.24731       28.22918
C         73.03687        8.89576       27.98664
H         74.90757        5.70398       30.14710
H         76.66602        8.05374       30.91328
H         75.11938        9.50928       29.68876
H         73.02728        8.07792       29.94463
H         73.67702        6.97743       28.68072
H         75.78483        8.87336       27.36638
H         77.11463        8.55792       28.51374
H         76.11413        7.18574       27.90057
H         73.58835        8.83474       27.02864
H         71.99795        8.54242       27.81105
H         72.99682        9.95079       28.32892
N         74.02478        6.98044       32.51610
C         73.04218        7.28417       33.57283
C         73.18568        6.45032       34.84299
O         72.48581        6.74534       35.80403
C         71.62124        7.09217       32.99458
C         71.34715        5.68136       32.51805
O         72.23111        4.68923       32.76182
O         70.35123        5.45569       31.85173
H         74.07664        6.02219       32.15937
H         73.14043        8.34859       33.87705
H         71.53908        7.77250       32.11852
H         70.84326        7.39387       33.72923
N         74.01271        5.37401       34.91914
C         74.13550        4.53590       36.09744
C         72.82899        3.88660       36.51197
O         72.42377        4.09708       37.64632
H         74.58635        5.12243       34.10954
H         74.53252        5.14830       36.93625
H         74.87135        3.72960       35.89387
N         72.13831        3.05463       35.67203
C         70.94067        2.31824       36.10002
C         71.14864        0.80428       36.10561
O         70.33142        0.11853       36.70457
C         69.67791        2.72140       35.30330
C         69.70839        2.43726       33.82586
O         70.79512        1.91876       33.23099
O         68.72300        2.68781       33.15126
H         72.50186        2.92244       34.71839
H         70.72124        2.57584       37.15849
H         69.49730        3.80905       35.43828
H         68.80843        2.17530       35.73210
N         72.20203        0.20714       35.47692
C         72.49336       -1.21702       35.55908
C         72.30211       -1.93971       34.24343
O         72.71346       -3.08834       34.15617
H         72.84605        0.77146       34.91097
H         71.87014       -1.73252       36.31987
H         73.55324       -1.31402       35.87976
N         71.64421       -1.36525       33.19650
C         71.41820       -2.02164       31.91275
C         72.02109       -1.18287       30.79835
O         72.53484       -0.10940       31.08501
C         69.90220       -2.22734       31.70195
C         69.30140       -3.12468       32.79976
C         67.84263       -3.41288       32.55096
N         66.90059       -3.07734       33.46394
O         67.50864       -3.97630       31.51919
H         71.25100       -0.42445       33.31140
H         71.91378       -3.01693       31.88583
H         69.73597       -2.71473       30.71779
H         69.38100       -1.24346       31.69872
H         69.42702       -2.63596       33.79063
H         69.84433       -4.09378       32.82019
H         67.15685       -2.61234       34.34694
H         65.90713       -3.29251       33.29103
N         72.00695       -1.60940       29.49960
C         72.59303       -0.83296       28.40828
C         71.49578       -0.38849       27.44933
O         70.88598       -1.21577       26.78628
C         73.77820       -1.59949       27.74376
C         73.39245       -2.94880       27.11107
C         74.48957       -0.72127       26.70261
H         71.56110       -2.51243       29.27933
H         73.04909        0.08923       28.82582
H         74.51637       -1.81779       28.54848
H         72.69061       -2.81933       26.26334
H         74.30264       -3.45332       26.72029
H         72.94083       -3.62901       27.86103
H         73.81083       -0.47332       25.85951
H         74.84013        0.22167       27.17205
H         75.37924       -1.24939       26.29678
N         71.15560        0.93147       27.38437
C         70.08450        1.46280       26.54319
C         70.46499        1.41245       25.06792
O         71.60205        1.10047       24.74252
C         69.78718        2.91752       26.99551
C         68.63299        3.60768       26.31850
N         67.37982        3.10516       26.39429
O         68.82687        4.65182       25.71647
H         71.64234        1.58165       28.01665
H         69.17624        0.84504       26.71730
H         70.70670        3.52487       26.86486
H         69.54008        2.90067       28.07118
H         67.19004        2.23283       26.90736
H         66.59633        3.59419       25.93675
N         69.53453        1.69745       24.11302
C         69.81652        1.70067       22.68292
C         70.81682        2.77933       22.31885
O         71.73285        2.48682       21.56459
C         68.51223        1.77158       21.85842
C         67.71725        3.05006       21.96282
C         68.09749        4.18696       21.22969
C         66.55249        3.09818       22.74630
C         67.32461        5.35030       21.27913
C         65.78766        4.26599       22.80430
C         66.16537        5.39282       22.06717
O         65.40330        6.50375       22.11573
H         68.56927        1.88209       24.41419
H         70.25240        0.71159       22.41349
H         67.88377        0.91970       22.20098
H         68.72267        1.57962       20.78346
H         68.97934        4.16586       20.60144
H         66.23620        2.23223       23.31452
H         67.62227        6.21337       20.69709
H         64.89385        4.29012       23.41465
H         65.61669        7.29659       21.60341
N         70.72814        4.04338       22.83103
C         71.73534        5.06151       22.54926
C         73.09574        4.61675       23.07794
O         74.09521        4.78681       22.39537
C         71.32272        6.46648       23.07096
C         71.50460        6.74414       24.57225
C         71.00401        8.12896       24.88747
O         71.77976        9.00395       25.23446
O         69.69461        8.41798       24.76379
H         69.93625        4.28016       23.44604
H         71.78289        5.18548       21.44444
H         70.26711        6.65131       22.76905
H         71.95226        7.22049       22.54693
H         72.58921        6.68537       24.81616
H         70.96191        6.01288       25.20153
N         73.18324        4.01544       24.30172
C         74.43818        3.58881       24.92729
C         75.09475        2.40755       24.21992
O         76.22496        2.08819       24.56246
C         74.19045        3.19703       26.40616
C         73.61092        4.37735       27.19771
C         73.21095        4.05326       28.60364
O         73.44684        2.86682       29.19334
O         72.62851        4.90985       29.24722
H         72.30368        3.88300       24.82029
H         75.13940        4.45267       24.90673
H         75.14112        2.87812       26.88539
H         73.47866        2.34314       26.43402
H         72.69081        4.74794       26.71357
H         74.34406        5.21128       27.20694
N         74.44470        1.68644       23.26394
C         75.01473        0.54233       22.58240
H         76.05524        0.32970       22.90328
H         74.39172       -0.35352       22.79014
H         75.01332        0.72980       21.48798
H         73.48400        1.92963       23.01661
Ca        72.66908        3.04133       31.29573
O         75.37792        0.91396       34.23754
H         75.35874        0.41877       35.09338
H         74.98364        1.79364       34.45860
O         75.13505        0.83724       31.16348
H         75.71872        0.18616       31.62632
H         75.09349        0.51286       30.23016
O         70.16339        2.51759       30.34644
H         69.61055        3.25599       30.70344
H         69.76440        1.69275       30.71731

Ca 1.0



