%chk=holoCaM-CaMKII.loop4.water2.frame197.chk
%nprocshared=20
%mem=10GB
%nosave
#b3lyp/svp scf=(tight,noincore,xqc) Test 
#IOP(5/87=12) Density=Current Pop=(MK,readradii) iop(6/33=2) iop(6/42=6)

holoCaM-CaMKII.loop4.water2.frame197 

   -3  1 
C         13.07146       39.40512       30.72919
C         13.98214       38.21634       30.59899
O         14.49448       37.95631       29.52208
H         12.06474       39.06125       31.05469
H         13.47027       40.10417       31.49410
H         12.96546       39.94205       29.76403
N         14.19919       37.43161       31.68606
C         14.99603       36.20238       31.69933
C         14.45735       35.21217       30.67054
O         13.26941       34.92259       30.69453
C         14.97601       35.66059       33.14220
C         15.47204       34.26518       33.36527
O         16.71487       33.84087       33.08317
O         14.70499       33.46417       33.87270
H         13.73047       37.72315       32.55957
H         16.04575       36.42984       31.46074
H         13.92240       35.66691       33.49857
H         15.55301       36.36030       33.78713
N         15.29165       34.66128       29.72965
C         14.83332       33.79153       28.64028
C         15.23795       32.33154       28.83798
O         14.77047       31.49218       28.08031
C         15.37930       34.29351       27.25486
C         16.90649       34.00525       27.08634
C         15.06884       35.78623       27.04775
C         17.46456       34.34774       25.70333
H         16.29638       34.87368       29.78443
H         13.72152       33.81258       28.61733
H         14.84837       33.71825       26.46348
H         17.08940       32.91750       27.21316
H         17.50035       34.53999       27.85575
H         15.34931       36.11612       26.02686
H         13.98366       35.97832       27.17294
H         15.63648       36.40455       27.77449
H         16.90046       33.80676       24.91392
H         17.42961       35.43729       25.50702
H         18.52874       34.03090       25.65091
N         16.17312       31.97455       29.76371
C         16.70745       30.62349       29.91802
C         16.60946       30.11381       31.35546
O         17.05453       29.00182       31.60548
C         18.15061       30.53377       29.34516
C         19.18761       31.52973       29.81552
O         20.32943       31.43282       29.40012
O         18.87106       32.57316       30.59638
H         16.57716       32.70979       30.35093
H         16.11827       29.90100       29.30886
H         18.08551       30.66437       28.24261
H         18.53200       29.50532       29.52711
N         15.97906       30.82288       32.33549
C         15.69749       30.27707       33.65433
C         16.74973       30.56640       34.70366
O         16.49523       30.23019       35.85215
H         15.51558       31.70736       32.09350
H         15.48548       29.18748       33.59479
H         14.75993       30.75259       34.01564
N         17.93255       31.19421       34.42955
C         18.89283       31.52621       35.48600
C         18.43733       32.70683       36.35869
O         19.17241       33.07404       37.26450
C         20.32395       31.68291       34.91449
C         20.52283       32.78534       33.91722
O         20.87249       32.52260       32.77801
O         20.40197       34.06760       34.28810
H         18.16721       31.42370       33.45280
H         18.99019       30.64441       36.15886
H         20.59018       30.71919       34.42639
H         21.04143       31.83786       35.74976
N         17.21855       33.30824       36.19295
C         16.70250       34.36540       37.05015
C         17.35446       35.71693       36.85183
O         16.97772       36.63295       37.56916
H         16.57332       32.95886       35.48162
H         16.78852       34.04660       38.11202
H         15.62145       34.50842       36.83077
N         18.32268       35.93248       35.91480
C         18.99388       37.21676       35.73339
C         18.85993       37.70338       34.29387
O         18.34579       36.98103       33.45128
C         20.47572       37.07924       36.14153
C         20.61389       36.58043       37.59339
C         22.05486       36.40521       37.99314
N         22.56441       37.06957       39.05662
O         22.76578       35.63569       37.36361
H         18.61943       35.15425       35.32153
H         18.52889       37.98627       36.38820
H         20.98587       38.06216       36.04547
H         20.97489       36.35728       35.46178
H         20.12123       35.59188       37.70254
H         20.10657       37.29557       38.27703
H         21.97926       37.71108       39.61140
H         23.54746       36.93327       39.33508
N         19.25383       38.96794       33.96636
C         19.08319       39.57333       32.64587
C         20.40478       40.16625       32.15933
O         21.03954       40.92236       32.88062
C         17.94877       40.63653       32.72306
C         17.85749       41.50729       31.45803
C         16.59272       39.92860       32.92012
H         19.62104       39.57049       34.71897
H         18.74906       38.82269       31.89556
H         18.14126       41.31881       33.57963
H         17.03181       42.24343       31.56056
H         18.79340       42.08463       31.30831
H         17.66330       40.88761       30.56193
H         15.76775       40.66795       32.99001
H         16.38301       39.25970       32.05489
H         16.58361       39.31437       33.84314
N         20.81696       39.91327       30.88354
C         22.01641       40.44962       30.24279
C         21.60279       41.46712       29.17447
O         20.41866       41.68526       28.99159
C         22.78521       39.23656       29.64776
C         24.03535       39.55484       28.86573
N         25.08789       40.17477       29.44682
O         24.09649       39.24459       27.68465
H         20.20824       39.33438       30.29267
H         22.65286       40.98447       30.98068
H         22.09209       38.68721       28.97104
H         23.06437       38.55018       30.47528
H         25.05794       40.44872       30.43861
H         25.93077       40.39357       28.89418
N         22.53115       42.14613       28.44206
C         22.21733       43.11064       27.38703
C         21.33359       42.49976       26.30609
O         20.28921       43.06727       26.01685
C         23.53583       43.61233       26.75630
C         23.30912       44.56328       25.60706
C         22.71828       45.82063       25.81376
C         23.68802       44.18626       24.30801
C         22.51194       46.68641       24.73414
C         23.47543       45.04876       23.23178
C         22.88718       46.30358       23.44100
O         22.67824       47.14567       22.40932
H         23.52302       41.97985       28.64439
H         21.68297       43.97991       27.83276
H         24.10106       42.72426       26.39638
H         24.16331       44.11191       27.52651
H         22.42198       46.13167       26.80781
H         24.14020       43.21907       24.12517
H         22.05890       47.65527       24.90235
H         23.76792       44.73865       22.23665
H         22.92208       46.91461       21.50139
N         21.68652       41.34264       25.67551
C         20.87484       40.70967       24.63262
C         19.44959       40.50953       25.09752
O         18.52688       40.87760       24.38394
C         21.43778       39.32112       24.24969
C         22.77291       39.38905       23.50000
C         23.23419       38.00789       23.12322
O         24.41883       37.54675       23.56654
O         22.54156       37.29928       22.40881
H         22.55051       40.87357       25.98520
H         20.85241       41.34773       23.72087
H         20.70656       38.82421       23.57223
H         21.54222       38.69149       25.16280
H         23.54668       39.87608       24.12868
H         22.64280       39.98486       22.57075
N         19.20846       39.92541       26.29677
C         17.87441       39.62340       26.79955
C         17.02143       40.88258       26.85735
O         15.96459       40.90775       26.24178
C         17.98020       38.95119       28.18137
C         18.75558       37.61709       28.11636
C         18.91123       37.01842       29.47594
O         17.93021       36.73262       30.13026
O         20.13514       36.79766       29.98761
H         20.02974       39.69626       26.87467
H         17.38086       38.89918       26.11271
H         16.95888       38.75451       28.57415
H         18.49430       39.64445       28.87254
H         19.77488       37.75554       27.70593
H         18.21736       36.90539       27.45751
N         17.43585       41.98197       27.54163
C         16.68093       43.21496       27.57255
H         15.69220       43.04583       28.04673
H         17.23406       43.98039       28.15911
H         16.54217       43.60040       26.53960
H         18.33059       41.95809       28.03586
Ca        18.50861       34.37545       31.88493
O         21.74135       36.05654       32.56773
H         22.32851       36.19613       33.35237
H         21.96251       36.80453       31.95920
O         21.70846       34.57252       29.25010
H         21.48609       33.72995       29.71798
H         21.01669       34.65619       28.54619

Ca 1.0



