%chk=holoCaM.loop4.water3.frame93.chk
%nprocshared=20
%mem=10GB
%nosave
#b3lyp/svp scf=(tight,noincore,xqc) Test 
#IOP(5/87=12) Density=Current Pop=(MK,readradii) iop(6/33=2) iop(6/42=6)

holoCaM.loop4.water3.frame93 

   -3  1 
C         75.62973       19.19144       50.23903
C         75.75176       18.45132       48.93922
O         76.84999       18.03476       48.60804
H         74.57890       19.48100       50.44872
H         75.98055       18.53286       51.06260
H         76.25826       20.10556       50.21521
N         74.65761       18.21855       48.16034
C         74.70228       17.35984       46.98212
C         73.61236       17.76551       45.99244
O         72.44526       17.77803       46.35704
C         74.51548       15.91162       47.45530
C         74.51619       14.89698       46.34790
O         75.60598       14.57832       45.59787
O         73.47724       14.28847       46.14645
H         73.73691       18.52829       48.50906
H         75.69507       17.43387       46.49021
H         73.53304       15.86298       47.98010
H         75.29183       15.63708       48.19307
N         73.93914       18.09699       44.71103
C         72.97141       18.49171       43.68663
C         72.94609       17.50049       42.51788
O         72.26021       17.79002       41.54293
C         73.23004       19.96657       43.22797
C         74.63812       20.17539       42.60867
C         72.97601       20.92353       44.41001
C         74.87038       21.58943       42.06421
H         74.92785       18.06173       44.43941
H         71.93622       18.47847       44.09309
H         72.47247       20.21388       42.45002
H         74.76654       19.46735       41.76251
H         75.42542       19.97237       43.36020
H         73.71370       20.75828       45.22317
H         73.02219       21.98438       44.09178
H         71.95410       20.76375       44.81617
H         74.10995       21.84151       41.29536
H         74.84161       22.34770       42.87333
H         75.87789       21.64641       41.60047
N         73.59881       16.29518       42.54834
C         73.55381       15.34835       41.42491
C         73.70550       13.85410       41.77904
O         73.61272       13.04470       40.86859
C         74.57539       15.77398       40.35205
C         76.00702       15.73566       40.82240
O         76.32586       15.37139       42.08019
O         76.89671       16.04562       40.04764
H         74.14576       16.06267       43.38559
H         72.53979       15.40417       40.96675
H         74.34351       16.80961       40.02241
H         74.47299       15.10806       39.46810
N         73.87751       13.40037       43.05506
C         73.88358       11.99091       43.42821
C         75.07958       11.17356       42.97475
O         75.07531        9.98435       43.26211
H         73.90680       14.06624       43.82070
H         72.95262       11.51930       43.04451
H         73.85898       11.91892       44.53797
N         76.13133       11.69437       42.27656
C         77.23636       10.85313       41.80807
C         78.04640       10.19489       42.92873
O         78.74674        9.23538       42.63651
C         78.16278       11.61396       40.83267
C         78.81905       12.84612       41.40198
O         78.55590       13.26760       42.65149
O         79.58208       13.49387       40.70455
H         76.11960       12.69098       42.02424
H         76.77599       10.02542       41.22209
H         77.56493       11.93071       39.95128
H         78.95467       10.91904       40.47723
N         78.02245       10.65055       44.21437
C         78.72283        9.99832       45.31736
C         79.84223       10.83752       45.90306
O         80.38182       10.44182       46.92649
H         77.48316       11.49893       44.43172
H         79.16390        9.02373       45.01541
H         77.97424        9.78946       46.11066
N         80.28645       11.96945       45.28852
C         81.38540       12.79202       45.77571
C         80.89855       14.25325       45.98670
O         80.20257       14.73475       44.86613
C         82.58487       12.67853       44.79512
C         83.19956       11.26222       44.82844
C         84.43213       11.10968       43.96666
N         85.10821        9.93640       43.96554
O         84.83438       12.03711       43.27898
H         79.86629       12.24586       44.39522
H         81.74942       12.44332       46.76769
H         83.39179       13.37476       45.10807
H         82.27037       12.95081       43.76379
H         82.44787       10.51060       44.50769
H         83.50122       11.03790       45.87552
H         84.79227        9.14663       44.54795
H         85.95613        9.81788       43.39091
N         82.04634       15.13413       46.27162
C         81.68572       16.52312       46.61039
C         82.38304       17.43633       45.60575
O         83.60264       17.53056       45.62302
C         82.07262       16.85883       48.08533
C         81.78193       18.32125       48.43447
C         81.32839       15.95596       49.08440
H         82.71539       14.71037       46.95654
H         80.58870       16.66503       46.50782
H         83.16499       16.68903       48.21537
H         80.70008       18.54386       48.32153
H         82.08124       18.52580       49.48426
H         82.36960       18.99675       47.78147
H         81.52648       14.88083       48.89684
H         81.65715       16.17827       50.12174
H         80.23783       16.13368       49.02522
N         81.65539       18.09551       44.65650
C         82.23982       18.94855       43.61647
C         82.72588       20.27452       44.20076
O         82.51159       20.51736       45.37826
C         81.15613       19.19426       42.53144
C         81.62887       19.91696       41.29690
N         82.59963       19.38863       40.51574
O         81.11551       20.98173       40.98696
H         80.64104       17.92170       44.63059
H         83.08553       18.39722       43.15076
H         80.30989       19.75048       42.99005
H         80.77160       18.21350       42.18772
H         83.03646       18.48653       40.75310
H         82.91308       19.88176       39.66675
N         83.38947       21.19077       43.43132
C         83.78195       22.50797       43.93257
C         82.58804       23.44591       44.17248
O         82.80524       24.51902       44.71732
C         84.79931       23.22660       43.00440
C         84.19971       23.80335       41.73286
C         84.00616       25.19484       41.63582
C         83.82820       22.99332       40.64558
C         83.43418       25.75714       40.49275
C         83.26019       23.55862       39.50004
C         83.05497       24.93898       39.42112
O         82.49226       25.46637       38.31573
H         83.66373       20.91266       42.48638
H         84.31195       22.33378       44.89637
H         85.67416       22.58119       42.77478
H         85.19780       24.07368       43.60680
H         84.28211       25.84860       42.45412
H         83.98189       21.92877       40.66086
H         83.28101       26.82781       40.44540
H         82.97654       22.91999       38.67319
H         82.32157       26.41515       38.22958
N         81.31583       23.12759       43.78286
C         80.15288       23.99027       44.00430
C         79.24007       23.39582       45.06552
O         78.17999       23.95230       45.31968
C         79.36569       24.17872       42.69121
C         80.20405       24.83172       41.58969
C         79.37720       25.06444       40.35728
O         78.86128       24.12447       39.77333
O         79.20263       26.31512       39.88900
H         81.13500       22.21735       43.33972
H         80.45946       24.99301       44.37495
H         78.48909       24.83494       42.89313
H         78.98994       23.19243       42.33723
H         81.05794       24.17356       41.33223
H         80.59700       25.80617       41.95298
N         79.61882       22.29475       45.76702
C         78.84248       21.67133       46.81785
C         79.55479       21.92435       48.13118
O         78.95285       22.50330       49.02401
C         78.70367       20.16946       46.51437
C         77.93726       19.91921       45.20304
C         77.84350       18.45852       44.86520
O         78.34182       17.52560       45.69473
O         77.32083       18.11004       43.81972
H         80.53489       21.87596       45.58552
H         77.82201       22.11125       46.88828
H         78.16977       19.68167       47.35097
H         79.71556       19.71476       46.42878
H         78.46221       20.42538       44.36648
H         76.91094       20.33695       45.28515
N         80.86180       21.57086       48.29555
C         81.63461       21.87089       49.48250
H         82.49532       22.51363       49.19816
H         81.04041       22.40502       50.25178
H         82.02428       20.93100       49.92119
H         81.35621       21.09535       47.53146
Ca        77.88377       14.78932       45.22224
O         76.67627       12.26405       46.67259
H         76.67695       12.70526       47.55725
H         75.98859       11.55578       46.74160
O         78.20868       15.02491       48.04605
H         77.39763       14.88847       48.59331
H         78.18029       15.98165       47.79586
O         79.29957       16.14309       42.59563
H         78.91499       16.45520       41.73990
H         80.17426       15.75254       42.34523

Ca 1.0



