%chk=holoCaM.loop4.water3.frame47.chk
%nprocshared=20
%mem=10GB
%nosave
#b3lyp/svp scf=(tight,noincore,xqc) Test 
#IOP(5/87=12) Density=Current Pop=(MK,readradii) iop(6/33=2) iop(6/42=6)

holoCaM.loop4.water3.frame47 

   -3  1 
C        108.78535       64.43793        8.77368
C        109.06753       65.40827        9.87944
O        108.56320       65.21147       10.97593
H        109.73955       63.96937        8.45069
H        108.10507       63.63167        9.12626
H        108.31714       64.95874        7.91523
N        109.90955       66.46418        9.67600
C        110.38588       67.28526       10.78094
C        110.75007       68.70257       10.33747
O        111.42123       68.86900        9.32886
C        111.62445       66.59631       11.38939
C        112.02731       67.15791       12.72429
O        111.33991       67.99328       13.28697
O        113.12357       66.67989       13.34065
H        110.37449       66.54308        8.75857
H        109.60287       67.32676       11.57152
H        112.47113       66.66731       10.67321
H        111.40677       65.52141       11.56542
N        110.43065       69.76141       11.13357
C        110.80404       71.15355       10.87733
C        111.87504       71.61344       11.87436
O        112.83532       72.24922       11.46309
C        109.53595       72.06297       11.02060
C        108.43915       71.64558       10.00920
C        109.88948       73.55884       10.85415
C        107.10060       72.36413       10.22261
H        109.91314       69.56401       12.00142
H        111.21277       71.28382        9.84960
H        109.13393       71.92570       12.04945
H        108.24208       70.56217       10.12256
H        108.79151       71.81999        8.96975
H        110.64397       73.87965       11.60153
H        110.28679       73.75714        9.83647
H        109.00775       74.20592       11.03098
H        107.18331       73.45538       10.04904
H        106.35032       71.97061        9.50526
H        106.72549       72.18645       11.25304
N        111.70558       71.40274       13.20911
C        112.44381       72.09391       14.27640
C        113.29674       71.22030       15.19789
O        113.94777       71.78823       16.06543
C        111.40738       72.87252       15.12910
C        110.33857       71.98518       15.75049
O        110.39402       70.64374       15.59960
O        109.39083       72.49043       16.32784
H        110.92132       70.80189       13.46107
H        113.14802       72.82683       13.82342
H        110.89654       73.58998       14.45055
H        111.91542       73.46078       15.92353
N        113.37748       69.86713       15.08774
C        114.24386       69.05925       15.93909
C        113.86754       69.01266       17.41698
O        114.63988       68.43269       18.16629
H        112.86702       69.39996       14.33611
H        115.28060       69.45116       15.84665
H        114.25166       68.01116       15.56944
N        112.72083       69.56264       17.92195
C        112.38476       69.52494       19.34983
C        112.32894       68.09850       19.87726
O        112.93156       67.82685       20.90733
C        111.07638       70.28775       19.67532
C        109.82082       69.60808       19.21522
O        109.63928       69.38911       18.03559
O        108.88410       69.23719       20.10932
H        112.07035       70.02921       17.28171
H        113.18052       70.07796       19.89777
H        111.12593       71.30979       19.24014
H        111.00539       70.39524       20.77951
N        111.69012       67.12114       19.17194
C        111.68528       65.72036       19.55937
C        110.33192       65.04568       19.42909
O        110.28612       63.84570       19.64499
H        111.28303       67.36829       18.25982
H        112.07585       65.57662       20.59043
H        112.36400       65.18332       18.86318
N        109.20093       65.71928       19.05406
C        107.91730       65.05220       18.82100
C        107.47068       65.29503       17.38316
O        108.14579       66.02046       16.67122
C        106.86857       65.57199       19.82398
C        107.31926       65.34149       21.27714
C        106.25887       65.74929       22.26653
N        105.82494       67.02934       22.33733
O        105.79262       64.91154       23.02426
H        109.23388       66.73543       18.90860
H        108.01419       63.95401       18.95885
H        105.91074       65.03188       19.65954
H        106.69420       66.65679       19.65375
H        108.24328       65.92260       21.48739
H        107.54766       64.26158       21.41604
H        106.20931       67.75493       21.71558
H        105.10209       67.29695       23.02197
N        106.33457       64.70795       16.88763
C        105.85459       64.94739       15.52526
C        104.49835       65.63225       15.58961
O        103.53814       65.04897       16.06822
C        105.87814       63.64529       14.66870
C        104.98952       62.51054       15.20643
C        105.50860       63.94578       13.20589
H        105.78679       64.09063       17.50154
H        106.54895       65.64295       15.01210
H        106.92664       63.27151       14.67432
H        103.91558       62.78396       15.18420
H        105.11721       61.60463       14.57534
H        105.27738       62.23487       16.24094
H        105.60542       63.02864       12.58629
H        104.46472       64.31652       13.12628
H        106.19216       64.71239       12.78455
N        104.38082       66.92620       15.17424
C        103.14387       67.69331       15.28827
C        102.10553       67.22624       14.27225
O        102.41020       66.39567       13.42857
C        103.49067       69.19395       15.09002
C        102.36870       70.16152       15.37184
N        101.79791       70.22076       16.59736
O        101.98528       70.91624       14.49099
H        105.22930       67.40696       14.84017
H        102.75397       67.55851       16.32063
H        103.86973       69.34253       14.05477
H        104.30943       69.45426       15.79160
H        102.11437       69.60345       17.35869
H        101.03814       70.89063       16.78694
N        100.84156       67.73461       14.30414
C         99.81587       67.45573       13.29798
C        100.06016       68.20175       11.98351
O         99.29890       67.98078       11.05218
C         98.40925       67.73688       13.88314
C         98.24664       69.13565       14.43486
C         98.18366       70.25479       13.59080
C         98.17460       69.32362       15.82684
C         98.06730       71.53997       14.13181
C         98.06729       70.60625       16.36472
C         98.01672       71.71913       15.52205
O         97.92160       72.95173       16.05884
H        100.59890       68.33996       15.09689
H         99.82835       66.36607       13.06978
H         98.28158       67.00856       14.71432
H         97.60746       67.51644       13.14505
H         98.22308       70.13733       12.51639
H         98.22529       68.47667       16.50018
H         98.02325       72.39557       13.46996
H         98.03159       70.73311       17.43925
H         97.89305       73.74985       15.51280
N        101.11509       69.05610       11.81319
C        101.45792       69.67855       10.53711
C        102.71499       69.03374        9.96052
O        103.14816       69.45061        8.89470
C        101.68214       71.19848       10.71355
C        100.45299       71.91966       11.27532
C        100.68839       73.40125       11.36104
O         99.96763       74.17380       10.74944
O        101.68933       73.88634       12.12088
H        101.76580       69.22219       12.58994
H        100.64768       69.52628        9.79071
H        101.92461       71.64042        9.72094
H        102.54745       71.37132       11.39252
H        100.24075       71.54258       12.29394
H         99.57477       71.72033       10.62281
N        103.34295       68.00042       10.60006
C        104.55587       67.35341       10.12558
C        104.34437       65.87420        9.82973
O        105.22164       65.29133        9.20728
C        105.63746       67.47756       11.21257
C        105.95824       68.93744       11.55138
C        106.96411       69.05054       12.66176
O        107.46266       67.95256       13.26156
O        107.32310       70.15323       13.03874
H        102.97203       67.65884       11.48860
H        104.90366       67.83643        9.18595
H        106.56763       66.97208       10.87679
H        105.26947       66.96777       12.13303
H        105.03805       69.46887       11.87357
H        106.35053       69.43096       10.64148
N        103.25202       65.18363       10.27548
C        103.05292       63.76850       10.03585
H        102.07172       63.61685        9.54075
H        103.84298       63.32909        9.39200
H        103.05231       63.22817       11.00644
H        102.53140       65.64815       10.84170
Ca       108.69857       69.14462       15.58891
O        111.46796       66.33012       15.92185
H        112.24781       65.89509       16.34840
H        111.70633       67.29051       15.88743
O        109.32224       65.79983       14.01545
H        108.48747       65.45948       13.60974
H        109.98669       65.08642       13.84712
O        106.44777       70.69867       16.53555
H        106.65803       71.01297       15.62010
H        107.24860       70.92852       17.06995

Ca 1.0



