%chk=holoCaM-CaMKII.loop1.water2.frame115.chk
%nprocshared=20
%mem=10GB
%nosave
#b3lyp/svp scf=(tight,noincore,xqc) Test 
#IOP(5/87=12) Density=Current Pop=(MK,readradii) iop(6/33=2) iop(6/42=6)

holoCaM-CaMKII.loop1.water2.frame115 

   0  1 
C         28.54552       33.68520       59.08640
C         27.68443       33.53741       57.86959
O         26.47240       33.44528       57.99910
H         29.12961       34.62714       59.01936
H         27.92531       33.71166       60.00746
H         29.24426       32.82477       59.14883
N         28.25280       33.53556       56.63389
C         27.47261       33.38997       55.41307
C         27.01460       31.94380       55.28997
O         27.86306       31.06346       55.23435
C         28.32656       33.82461       54.20942
C         27.55214       33.93525       52.93125
O         28.12336       34.32750       51.93107
O         26.23564       33.65704       52.87666
H         29.27329       33.67850       56.56668
H         26.61214       34.09558       55.46529
H         29.18407       33.12966       54.07343
H         28.73108       34.83919       54.42112
N         25.68997       31.62001       55.29295
C         25.22247       30.23718       55.42233
C         25.01448       29.53427       54.08704
O         24.82421       28.32603       54.09044
C         23.94687       30.17397       56.29904
C         24.08623       30.91631       57.65110
C         25.33116       30.53497       58.46859
C         25.34091       29.07060       58.91433
N         26.61854       28.74095       59.54406
H         25.01428       32.38807       55.38687
H         26.01021       29.65203       55.94283
H         23.68555       29.11006       56.47910
H         23.09367       30.63475       55.75277
H         23.16492       30.76459       58.25389
H         24.15937       32.00124       57.44702
H         25.38273       31.18334       59.37032
H         26.24000       30.74982       57.87117
H         25.19836       28.39394       58.04583
H         24.50579       28.90700       59.63065
H         27.38244       28.79688       58.83009
H         26.82506       29.40090       60.32835
H         26.57751       27.76479       59.91433
N         25.01820       30.22178       52.91309
C         24.86862       29.60354       51.59083
C         25.97706       30.03178       50.61622
O         25.97694       29.54810       49.49258
C         23.45602       29.87740       51.01110
C         23.09283       31.32960       50.88664
O         22.02230       31.65518       50.40119
O         23.94459       32.26509       51.32741
H         25.10371       31.24029       52.97609
H         24.94209       28.49705       51.67949
H         22.70020       29.39837       51.66991
H         23.38331       29.39882       50.00947
N         26.97331       30.89387       50.97595
C         28.09291       31.24732       50.11800
C         27.73027       32.06787       48.89478
O         28.08810       31.66644       47.79682
H         27.00373       31.27514       51.92922
H         28.63448       30.32209       49.82100
H         28.80328       31.86460       50.71047
N         27.10283       33.27406       49.02000
C         26.94869       34.23349       47.91984
C         27.66195       35.54736       48.24375
O         27.40241       36.54835       47.59024
C         25.46582       34.43359       47.53940
C         24.57290       35.00827       48.59629
O         25.04329       35.38517       49.79320
O         23.36893       35.03909       48.39861
H         26.78071       33.55647       49.95578
H         27.41792       33.84252       46.99046
H         25.06351       33.43163       47.27138
H         25.39175       35.07974       46.63864
N         28.65156       35.58643       49.18305
C         29.44650       36.76286       49.48928
C         28.77669       37.78483       50.38617
O         29.46705       38.72955       50.74564
H         28.94530       34.71172       49.63717
H         29.81571       37.22983       48.55044
H         30.33834       36.42089       50.05851
N         27.47923       37.69308       50.80735
C         26.88868       38.65584       51.74053
C         26.21655       37.97136       52.92157
O         26.03680       36.76029       52.92113
C         25.89681       39.60356       51.02024
C         26.60883       40.53828       50.03419
O         24.86983       38.88902       50.38100
H         26.88763       36.92901       50.45699
H         27.68801       39.29106       52.18228
H         25.42508       40.27016       51.77445
H         25.25416       38.44431       49.58094
H         27.37118       41.14259       50.57199
H         27.10893       39.96395       49.22715
H         25.87202       41.23327       49.57890
N         25.85211       38.72681       53.99629
C         25.19821       38.22341       55.19843
C         23.92871       39.03937       55.40280
O         24.01632       40.26033       55.45057
C         26.15456       38.36007       56.42425
C         27.48551       37.60210       56.16546
C         25.47143       37.82796       57.70371
C         28.54307       37.82911       57.24898
H         26.08235       39.73347       53.97793
H         24.94987       37.14365       55.09474
H         26.38902       39.43882       56.56504
H         27.93642       37.96357       55.21770
H         27.29111       36.51245       56.06092
H         25.23827       36.74574       57.60191
H         26.10909       37.97096       58.59799
H         24.53153       38.37579       57.90717
H         28.76508       38.91391       57.34234
H         28.22248       37.43248       58.23236
H         29.47856       37.30210       56.96591
N         22.71939       38.43723       55.57031
C         21.48493       39.18093       55.81213
C         21.21892       39.25736       57.30001
O         21.97145       38.68922       58.07201
C         20.29144       38.50929       55.08121
C         20.51146       38.44138       53.57263
O         20.10558       37.20963       55.57571
H         22.68762       37.41250       55.63031
H         21.58906       40.22759       55.44936
H         19.37469       39.11182       55.27399
H         19.19954       36.91582       55.29678
H         21.40209       37.82028       53.35385
H         19.62922       37.97122       53.08692
H         20.64860       39.45948       53.15410
N         20.16212       39.96038       57.78478
C         19.82486       39.98708       59.20463
C         19.46658       38.57587       59.65804
O         19.97831       38.12595       60.67300
C         18.67107       40.98392       59.47013
C         18.36480       41.10685       60.96676
O         19.04360       42.25975       59.00813
H         19.56779       40.47453       57.11711
H         20.70104       40.36039       59.78386
H         17.74183       40.63916       58.95676
H         18.62992       42.38990       58.11545
H         17.55381       41.84896       61.12475
H         18.03706       40.13520       61.39008
H         19.26724       41.45381       61.51681
N         18.64099       37.80168       58.89304
C         18.27076       36.42217       59.20898
C         19.49901       35.55802       59.46389
O         19.57597       34.94022       60.51675
C         17.42859       35.83237       58.04679
C         16.94279       34.40183       58.33102
C         16.12939       33.83177       57.16008
C         15.67096       32.39934       57.47368
N         14.92079       31.82289       56.35848
H         18.28100       38.21051       58.01643
H         17.64120       36.42451       60.12649
H         18.03388       35.82997       57.11467
H         16.54090       36.48152       57.87886
H         16.31606       34.40791       59.24897
H         17.81953       33.73964       58.49802
H         16.76116       33.82075       56.24428
H         15.23998       34.47242       56.97126
H         15.02905       32.40683       58.38275
H         16.56088       31.76311       57.67806
H         15.51969       31.78752       55.50172
H         14.63522       30.84837       56.60909
H         14.06225       32.38886       56.16869
N         20.49644       35.47217       58.54110
C         21.68726       34.63936       58.70580
C         22.42672       35.02323       59.97757
O         22.59289       34.17268       60.84073
C         22.60110       34.74308       57.45652
C         21.90151       34.15460       56.20920
C         22.73406       34.22582       54.95944
O         23.11178       35.29913       54.52286
O         23.00265       33.10365       54.26755
H         20.40011       36.03810       57.69005
H         21.37746       33.57391       58.80214
H         23.53827       34.17794       57.63775
H         22.87665       35.80450       57.28503
H         20.95721       34.69514       56.00476
H         21.65193       33.08940       56.40665
N         22.85402       36.29836       60.17820
C         23.49175       36.75897       61.39444
H         24.48734       37.18393       61.15173
H         22.86600       37.55542       61.85224
H         23.62022       35.94763       62.14063
H         22.69540       36.99092       59.44412
Ca        23.76233       34.47273       51.34046
O         22.58200       37.14451       51.17137
H         23.50169       37.08912       51.53240
H         22.37061       38.11092       51.18125
O         20.74709       34.58084       51.94858
H         20.71511       35.18766       51.16731
H         21.05354       33.71825       51.57417

Ca 1.0



