%chk=holoCaM.loop2.water3.frame375.chk
%nprocshared=20
%mem=10GB
%nosave
#b3lyp/svp scf=(tight,noincore,xqc) Test 
#IOP(5/87=12) Density=Current Pop=(MK,readradii) iop(6/33=2) iop(6/42=6)

holoCaM.loop2.water3.frame375 

   -2  1 
C         -9.03354      100.64357       81.40534
C         -9.00146       99.52928       82.40563
O         -8.65168       98.41750       82.03397
H         -9.39799      101.58750       81.86139
H         -8.01586      100.80913       80.99566
H         -9.71992      100.36466       80.57778
N         -9.35728       99.74573       83.70333
C         -9.39277       98.66706       84.67825
C        -10.48032       97.68112       84.28223
O        -11.62901       98.08940       84.16941
C         -9.68729       99.20765       86.09272
C         -9.60160       98.11691       87.12687
O         -9.18739       97.01035       86.83854
O         -9.99891       98.34701       88.38099
H         -9.61282      100.70063       84.00019
H         -8.39178       98.18146       84.70533
H        -10.70507       99.65419       86.10426
H         -8.96259      100.00298       86.37270
N        -10.19300       96.37244       84.03454
C        -11.21864       95.43521       83.58543
C        -12.30267       95.15433       84.63334
O        -13.31964       94.58756       84.25973
C        -10.57444       94.12514       83.12384
H         -9.21221       96.05898       84.10619
H        -11.70483       95.89353       82.69499
H        -11.33865       93.44359       82.69545
H         -9.81971       94.33759       82.33465
H        -10.07014       93.61990       83.97401
N        -12.15601       95.49215       85.95107
C        -13.18186       95.28126       86.98177
C        -13.58321       96.58911       87.68662
O        -14.47819       96.54617       88.51909
C        -12.70287       94.20714       87.98829
C        -11.36914       94.55183       88.58344
O        -11.21432       95.57559       89.22248
O        -10.30940       93.78302       88.29358
H        -11.26167       95.89299       86.25242
H        -14.11187       94.88525       86.51797
H        -12.59330       93.24898       87.43174
H        -13.45839       94.04599       88.78684
N        -13.00905       97.78918       87.37396
C        -13.44055       99.08496       87.88858
C        -13.16398       99.39440       89.35295
O        -13.46261      100.51367       89.74546
H        -12.28543       97.82070       86.64917
H        -14.52494       99.21236       87.68353
H        -12.90038       99.86750       87.31272
N        -12.61753       98.50413       90.22782
C        -12.38530       98.82983       91.63974
C        -11.22266       99.80740       91.86592
O        -11.01907      100.19986       93.00643
C        -12.21096       97.52986       92.45474
C        -13.49818       96.73314       92.43446
N        -13.55553       95.49982       91.88201
O        -14.50872       97.21931       92.92185
H        -12.42174       97.55154       89.90334
H        -13.29459       99.33124       92.04115
H        -11.98079       97.76196       93.51710
H        -11.36766       96.93787       92.04232
H        -12.72345       95.06761       91.45817
H        -14.44546       94.97849       91.86952
N        -10.43674      100.26340       90.84750
C         -9.44492      101.31910       90.98305
C         -8.01610      100.81522       91.00269
O         -7.28348      101.25158       91.87482
H        -10.61297       99.93955       89.89601
H         -9.63338      101.93610       91.88987
H         -9.56778      102.00589       90.11818
N         -7.53778       99.95709       90.05039
C         -6.14202       99.50637       89.93326
C         -5.98874       98.63403       88.68581
O         -6.56935       97.55875       88.62307
C         -5.61651       98.69769       91.16444
C         -4.17951       98.19317       90.94474
O         -5.59063       99.48593       92.32449
H         -8.20052       99.65053       89.32820
H         -5.50388      100.41071       89.82032
H         -6.26837       97.80649       91.31202
H         -6.24580       99.10514       92.96564
H         -3.83126       97.64050       91.84250
H         -4.11395       97.49914       90.08098
H         -3.49293       99.04888       90.76564
N         -5.18042       99.03812       87.66893
C         -4.86837       98.22631       86.49477
C         -3.75884       97.24159       86.85352
O         -2.72272       97.67108       87.34213
C         -4.43618       99.15948       85.31799
C         -5.61839      100.08844       84.92703
C         -3.96855       98.34365       84.09559
C         -5.24673      101.17228       83.91486
H         -4.72449       99.95982       87.75159
H         -5.77490       97.68020       86.14486
H         -3.58006       99.78179       85.66185
H         -5.99551      100.61725       85.82726
H         -6.45107       99.48000       84.51645
H         -3.61852       99.00037       83.27621
H         -3.09895       97.71482       84.36111
H         -4.78681       97.69645       83.71567
H         -4.43721      101.81203       84.32568
H         -4.92459      100.74284       82.94612
H         -6.13609      101.80743       83.71801
N         -3.88263       95.91354       86.56100
C         -2.81151       94.93490       86.75765
C         -2.06292       94.72595       85.44729
O         -2.42957       95.33156       84.45667
C         -3.39255       93.58547       87.24289
C         -4.21517       93.70723       88.49105
O         -3.84875       93.05681       89.61181
O         -5.24674       94.35701       88.48131
H         -4.73012       95.60228       86.07261
H         -2.08209       95.31116       87.50838
H         -2.55914       92.87825       87.44036
H         -4.03755       93.14485       86.45011
N         -0.99339       93.88590       85.35987
C         -0.26731       93.64866       84.11141
C         -1.16486       93.10452       82.99514
O         -1.17891       93.72896       81.94364
C          0.93759       92.71044       84.34258
C          1.65581       92.38480       83.04844
C          2.24187       93.39841       82.26734
C          1.72298       91.05324       82.60134
C          2.87612       93.08176       81.06092
C          2.35937       90.74209       81.39669
C          2.93426       91.75510       80.62613
H         -0.67986       93.39997       86.21418
H          0.14845       94.62221       83.76505
H          0.58462       91.77423       84.81928
H          1.64827       93.18958       85.05005
H          2.20300       94.43237       82.58497
H          1.27617       90.25491       83.18046
H          3.32033       93.86519       80.46032
H          2.40284       89.71470       81.05903
H          3.42329       91.51154       79.69165
N         -1.92826       91.97005       83.10405
C         -2.73495       91.43886       82.00826
C         -3.78366       92.43324       81.54219
O         -4.03493       92.50866       80.34741
C         -3.32468       90.14475       82.58997
C         -3.39609       90.43325       84.07293
C         -2.08143       91.16971       84.30458
H         -2.11771       91.15982       81.12533
H         -4.26203       89.78570       82.11322
H         -2.55664       89.34512       82.48112
H         -4.23927       91.13428       84.24677
H         -3.54705       89.54874       84.72759
H         -2.18650       91.75118       85.23719
H         -1.23207       90.45615       84.36836
N         -4.39902       93.26184       82.42189
C         -5.39822       94.25663       82.04368
C         -4.78672       95.27482       81.09461
O         -5.30863       95.44002       80.00092
C         -6.01314       94.85857       83.33237
C         -6.77729       93.71451       84.04262
C         -7.34992       93.95257       85.39968
O         -7.18266       95.08058       86.10972
O         -7.98888       93.04210       85.90312
H         -4.12646       93.19473       83.41293
H         -6.23435       93.75900       81.50084
H         -6.72681       95.67710       83.09268
H         -5.20201       95.27112       83.96065
H         -6.12357       92.83195       84.18149
H         -7.61219       93.41180       83.37581
N         -3.63871       95.93278       81.41174
C         -2.94273       96.82503       80.50584
H         -1.93001       96.41420       80.30121
H         -3.46775       96.94105       79.53482
H         -2.83313       97.82351       80.97550
H         -3.20294       95.76089       82.32017
Ca        -8.30620       94.76794       88.04133
O         -8.98295       96.80136       90.99230
H         -8.93796       96.54672       90.03789
H         -9.18661       97.76883       90.97902
O         -6.51799       95.23241       90.83324
H         -5.56362       95.48896       90.78281
H         -6.71408       95.20064       91.80225
O         -8.17491       92.80399       90.31071
H         -8.43831       92.07196       89.69838
H         -7.73187       92.34933       91.06995

Ca 1.0



