%chk=holoCaM.loop4.water3.frame49.chk
%nprocshared=20
%mem=10GB
%nosave
#b3lyp/svp scf=(tight,noincore,xqc) Test 
#IOP(5/87=12) Density=Current Pop=(MK,readradii) iop(6/33=2) iop(6/42=6)

holoCaM.loop4.water3.frame49 

   -3  1 
C        101.06881       76.87970       30.92421
C        100.87631       78.33973       31.20064
O        100.05137       78.67120       32.03976
H        102.10670       76.59443       31.19883
H        100.36972       76.27211       31.54091
H        100.89122       76.65879       29.85332
N        101.63285       79.27912       30.55912
C        101.63592       80.67114       30.98966
C        102.09311       81.63739       29.90183
O        103.18034       81.46071       29.36931
C        102.58293       80.78615       32.19563
C        102.55977       82.17198       32.74605
O        101.39172       82.69053       33.16144
O        103.58153       82.83786       32.79555
H        102.36128       78.95586       29.90385
H        100.61243       80.96051       31.31882
H        103.61805       80.50547       31.89725
H        102.25596       80.09424       32.99954
N        101.34094       82.74203       29.59921
C        101.78242       83.79879       28.68384
C        101.92759       85.17137       29.36786
O        102.39830       86.08022       28.69810
C        100.81938       83.92608       27.45778
C         99.37342       84.30314       27.88208
C        100.83924       82.63383       26.62410
C         98.46334       84.69505       26.71645
H        100.43278       82.85481       30.06927
H        102.79426       83.55350       28.29380
H        101.21458       84.74334       26.81382
H         99.40105       85.17985       28.56240
H         98.90962       83.45470       28.41751
H        101.87896       82.39939       26.31324
H        100.43782       81.77904       27.20898
H        100.23976       82.74422       25.69819
H         98.32287       83.86026       26.00211
H         97.46222       84.97228       27.11157
H         98.88397       85.57396       26.18341
N        101.48952       85.42895       30.64042
C        101.44218       86.78841       31.20925
C        101.96706       86.91830       32.64487
O        102.07762       88.04648       33.10669
C         99.97954       87.29295       31.16458
C         99.05050       86.24956       31.72559
O         99.29137       85.72235       32.93831
O         98.18468       85.76253       31.01759
H        101.03830       84.66995       31.16552
H        102.05947       87.48369       30.59939
H         99.69549       87.47503       30.10476
H         99.87851       88.25721       31.70885
N        102.26386       85.84705       33.42863
C        102.72398       85.95828       34.80573
C        101.73064       86.67319       35.70301
O        102.09532       87.68830       36.27895
H        102.15971       84.90924       33.04430
H        103.69751       86.49528       34.81936
H        102.89604       84.94081       35.21782
N        100.46470       86.19356       35.88350
C         99.47948       86.82783       36.76482
C         99.04204       85.90030       37.90282
O         98.10938       86.24271       38.61647
C         98.29647       87.39390       35.94103
C         97.42155       86.39989       35.23563
O         97.62935       85.08113       35.35074
O         96.49492       86.80002       34.55042
H        100.19070       85.33780       35.37849
H         99.91742       87.72286       37.25766
H         98.71388       88.08767       35.17875
H         97.64210       87.98697       36.61648
N         99.72702       84.75228       38.18648
C         99.42595       83.87870       39.31442
C         98.19509       83.00937       39.14460
O         97.93506       82.22201       40.04615
H        100.57067       84.52594       37.64519
H         99.35284       84.48267       40.24494
H        100.27745       83.17529       39.44014
N         97.40001       83.06463       38.04031
C         96.24098       82.20300       37.82809
C         96.35562       81.44699       36.51170
O         97.30841       81.66080       35.76961
C         94.93740       83.03176       37.91197
C         94.84423       84.18523       36.89665
C         93.55137       84.95956       37.01005
N         93.33453       86.02644       36.20767
O         92.69762       84.63722       37.82414
H         97.62278       83.74487       37.30802
H         96.17766       81.43618       38.63185
H         94.87021       83.46127       38.93564
H         94.06556       82.35723       37.77567
H         94.92801       83.78515       35.86352
H         95.67198       84.89885       37.08115
H         94.04175       86.31821       35.51843
H         92.45903       86.56586       36.27887
N         95.40608       80.53465       36.16450
C         95.40688       79.77187       34.92137
C         94.18265       80.15101       34.10464
O         93.07523       80.15214       34.62838
C         95.52365       78.24143       35.19063
C         94.39637       77.66365       36.06090
C         95.60844       77.45823       33.86656
H         94.62209       80.37909       36.81677
H         96.30836       80.02500       34.31945
H         96.48063       78.07461       35.73405
H         94.57450       76.58020       36.23319
H         94.37339       78.15092       37.05612
H         93.40829       77.77806       35.57058
H         95.77940       76.37859       34.06530
H         94.66866       77.55812       33.28320
H         96.45273       77.82911       33.24626
N         94.32305       80.46043       32.78820
C         93.23596       80.87235       31.90902
C         92.85729       79.72281       30.98948
O         93.52303       78.69532       31.01022
C         93.73454       82.11942       31.13618
C         92.78102       82.73954       30.15117
N         91.60108       83.25785       30.55622
O         93.09830       82.81058       28.97324
H         95.25809       80.36338       32.37003
H         92.33261       81.11831       32.50876
H         94.66341       81.83793       30.58966
H         93.99760       82.90006       31.87578
H         91.32653       83.22868       31.54787
H         90.96728       83.69969       29.87375
N         91.74230       79.79317       30.20727
C         91.34695       78.71566       29.30677
C         92.30790       78.59938       28.13368
O         92.61005       77.48689       27.72870
C         89.87684       78.78047       28.83061
C         89.52129       79.87903       27.85379
C         89.27331       79.54579       26.50983
C         89.38676       81.21938       28.25647
C         88.91663       80.53055       25.58761
C         89.02652       82.20309       27.33188
C         88.79223       81.86438       25.99621
O         88.44015       82.82427       25.11830
H         91.14058       80.61512       30.30710
H         91.38049       77.76749       29.89240
H         89.18431       78.81341       29.69983
H         89.69143       77.80241       28.33139
H         89.35748       78.52022       26.17120
H         89.52916       81.51665       29.28197
H         88.73229       80.25283       24.55773
H         88.91984       83.22969       27.65841
H         88.26193       82.62738       24.18765
N         92.84518       79.71266       27.54861
C         93.85255       79.64156       26.48705
C         95.18632       79.07325       26.99194
O         96.06989       78.84933       26.17599
C         94.13094       81.03384       25.87383
C         92.88283       81.69182       25.26354
C         93.24192       82.99157       24.60026
O         94.02151       83.00772       23.66035
O         92.69837       84.14527       25.03240
H         92.53269       80.63333       27.88199
H         93.45655       78.98502       25.68033
H         94.88491       80.90865       25.06418
H         94.56083       81.70793       26.64843
H         92.12913       81.88910       26.05432
H         92.42857       81.01933       24.50501
N         95.40765       78.83299       28.31713
C         96.64463       78.30475       28.88177
C         96.42664       76.92852       29.50766
O         97.39081       76.35751       29.99956
C         97.12712       79.25161       29.99739
C         97.42264       80.68470       29.53501
C         97.70281       81.59047       30.70795
O         97.69479       81.12064       31.96990
O         97.90668       82.77656       30.52134
H         94.66792       79.05060       28.98621
H         97.42689       78.20179       28.09861
H         98.03799       78.84143       30.47834
H         96.32185       79.28241       30.75900
H         96.54237       81.09644       28.99873
H         98.29506       80.68193       28.84551
N         95.19999       76.33453       29.55100
C         94.97913       75.05037       30.17526
H         93.90492       74.77469       30.09551
H         95.58575       74.27172       29.66849
H         95.24989       75.10264       31.25107
H         94.38165       76.79798       29.14923
Ca        98.63236       83.59947       33.35790
O        100.85417       82.54695       36.04162
H        101.13143       82.26457       36.94809
H        101.69640       82.84294       35.61668
O         99.53953       80.64229       34.15588
H         98.84870       79.93618       34.09794
H        100.30505       80.20396       34.60376
O         95.98326       84.20085       32.64617
H         95.40544       84.61117       33.33631
H         95.84375       84.75517       31.83837

Ca 1.0



