%chk=holoCaM.loop1.water2.frame88.chk
%nprocshared=20
%mem=10GB
%nosave
#b3lyp/svp scf=(tight,noincore,xqc) Test 
#IOP(5/87=12) Density=Current Pop=(MK,readradii) iop(6/33=2) iop(6/42=6)

holoCaM.loop1.water2.frame88 

   0  1 
C         75.68425       19.79519        5.88227
C         74.64015       20.69936        5.31224
O         73.48211       20.60436        5.69540
H         76.47969       20.40388        6.36027
H         75.24149       19.11153        6.63594
H         76.12686       19.19169        5.06166
N         74.99010       21.61610        4.37209
C         74.02366       22.50432        3.74876
C         73.03688       21.66698        2.96852
O         73.46680       20.89930        2.11759
C         74.75745       23.50684        2.85052
C         73.90196       24.65024        2.41946
O         74.44675       25.60267        1.90166
O         72.60116       24.73613        2.75040
H         75.98315       21.67862        4.09542
H         73.51911       23.08459        4.55415
H         75.22548       23.01383        1.97143
H         75.56550       23.96413        3.46483
N         71.70312       21.72695        3.23487
C         70.75048       20.79048        2.65979
C         69.98953       21.46262        1.53598
O         70.12489       21.01034        0.40644
C         69.90214       20.18655        3.80059
C         69.00132       19.02686        3.34539
C         68.24580       18.35071        4.50974
C         69.16983       17.60107        5.49269
N         68.39419       16.92120        6.53138
H         71.35572       22.42869        3.90493
H         71.30239       19.93779        2.20240
H         69.29000       20.97554        4.29024
H         70.62275       19.79772        4.54942
H         69.60929       18.25511        2.82433
H         68.25583       19.42746        2.62589
H         67.54932       17.60492        4.06847
H         67.64205       19.10744        5.05614
H         69.87503       18.30250        5.98522
H         69.76345       16.84418        4.93276
H         67.73355       16.23425        6.10063
H         69.04712       16.40512        7.16531
H         67.85924       17.62010        7.09630
N         69.21139       22.56627        1.73535
C         68.56828       23.25405        0.61143
C         69.57815       23.91742       -0.34339
O         69.18370       24.27484       -1.44458
C         67.50907       24.26847        1.09040
C         68.04086       25.39816        1.93268
O         69.22526       25.47814        2.21891
O         67.18628       26.33419        2.38608
H         69.06905       22.90596        2.69837
H         68.01198       22.47799        0.03633
H         66.74321       23.72574        1.68633
H         67.00131       24.70143        0.20095
N         70.89535       24.07398       -0.00989
C         71.92486       24.53447       -0.93474
C         71.86446       26.00442       -1.30716
O         71.70292       26.30276       -2.48193
H         71.21304       23.76747        0.91730
H         71.88166       23.90042       -1.84721
H         72.92026       24.37183       -0.47012
N         72.06181       26.97697       -0.36779
C         72.11119       28.41260       -0.67710
C         73.41857       29.10172       -0.24711
O         73.55301       30.28759       -0.51659
C         70.87689       29.11010       -0.07121
C         70.66678       28.80110        1.38289
O         69.63915       28.25462        1.74747
O         71.60170       29.11680        2.28887
H         72.17472       26.68344        0.61424
H         72.05341       28.57549       -1.77566
H         69.98079       28.76061       -0.62734
H         70.95175       30.21025       -0.21186
N         74.41942       28.44625        0.40605
C         75.68751       29.05166        0.79746
C         75.85584       29.17248        2.30291
O         76.93988       29.55315        2.72229
H         74.29708       27.46119        0.62811
H         75.80846       30.07268        0.37547
H         76.50792       28.42529        0.38282
N         74.82423       28.95156        3.17262
C         74.92579       29.16452        4.61474
C         74.36185       27.95001        5.38870
O         72.96826       28.05058        5.52337
C         74.19372       30.47530        5.03085
C         75.00700       31.73254        4.71609
O         72.91496       30.55522        4.44995
H         73.90709       28.68730        2.79735
H         75.99471       29.25483        4.90955
H         74.06462       30.48757        6.13424
H         73.02669       30.83298        3.50169
H         74.43580       32.62704        5.04604
H         75.96363       31.70275        5.27947
H         75.21976       31.81541        3.63105
N         75.03001       27.80951        6.69505
C         74.48064       26.79299        7.61254
C         73.65906       27.47152        8.70915
O         74.21042       28.19974        9.52343
C         75.66253       25.92212        8.15049
C         76.11852       24.95242        7.02107
C         75.30248       25.13602        9.42585
C         77.38694       24.15606        7.33373
H         75.22045       28.72100        7.17212
H         73.80141       26.10772        7.06525
H         76.49511       26.60750        8.42651
H         76.31797       25.52898        6.09283
H         75.29641       24.23207        6.80376
H         76.17880       24.57783        9.81071
H         75.01503       25.82596       10.24529
H         74.47546       24.42811        9.23673
H         78.23925       24.84698        7.50016
H         77.26058       23.50023        8.21791
H         77.62543       23.49881        6.46992
N         72.31223       27.27173        8.76000
C         71.42645       27.82663        9.78915
C         71.59680       27.07790       11.10708
O         72.44543       26.21475       11.19485
C         69.95026       27.76433        9.30968
C         69.72671       28.67874        8.09359
O         69.54413       26.43647        9.06683
H         71.89192       26.70751        8.00866
H         71.66431       28.90087        9.95264
H         69.27778       28.17414       10.08950
H         69.70063       26.21692        8.11243
H         68.66138       28.64691        7.78491
H         69.98138       29.72812        8.35891
H         70.36300       28.36906        7.24091
N         70.79884       27.36180       12.18056
C         70.88349       26.65178       13.45786
C         70.59301       25.16455       13.28090
O         71.41429       24.35282       13.69020
C         69.88919       27.26763       14.47957
C         70.05451       26.65606       15.87731
O         70.11410       28.65140       14.57085
H         70.10469       28.11360       12.08969
H         71.90901       26.78868       13.86927
H         68.85095       27.07836       14.11569
H         69.24731       29.06978       14.81725
H         71.07945       26.85109       16.26073
H         69.32449       27.11599       16.57668
H         69.87681       25.56087       15.86287
N         69.43572       24.73646       12.69551
C         69.06154       23.32686       12.56540
C         70.12689       22.52612       11.83292
O         70.55228       21.49448       12.33028
C         67.66391       23.16789       11.90188
C         67.58884       23.53363       10.40663
C         66.16330       23.39392        9.85903
C         66.13211       23.63148        8.34063
N         64.77237       23.50145        7.81719
H         68.78073       25.45264       12.34320
H         68.95488       22.90473       13.59033
H         66.93782       23.78688       12.47314
H         67.35092       22.10475       11.99995
H         68.23284       22.83154        9.83904
H         67.93648       24.57545       10.24332
H         65.50068       24.12679       10.36918
H         65.78734       22.36758       10.06332
H         66.78707       22.88373        7.83848
H         66.52082       24.64757        8.10670
H         64.15288       24.22756        8.24457
H         64.78915       23.63789        6.78051
H         64.39454       22.54835        8.02502
N         70.62900       22.98498       10.65576
C         71.66119       22.30796        9.87647
C         72.90936       22.09138       10.71629
O         73.40789       20.97483       10.75008
C         71.94775       23.12464        8.59656
C         70.72623       23.07886        7.64977
C         70.89851       23.90937        6.41720
O         72.02090       24.61761        6.21775
O         70.00383       23.95201        5.58825
H         70.27696       23.89167       10.31587
H         71.30258       21.30668        9.54816
H         72.81966       22.69450        8.05583
H         72.18547       24.17632        8.87330
H         69.81732       23.44922        8.16324
H         70.55218       22.02549        7.33947
N         73.41948       23.09285       11.48070
C         74.55230       22.94038       12.37037
H         75.32783       23.69103       12.11567
H         74.21892       23.11665       13.41577
H         75.00285       21.92807       12.31378
H         72.95042       23.99987       11.47352
Ca        72.23427       26.41204        4.16814
O         68.49689       26.56136        5.69294
H         67.66170       27.06914        5.84882
H         68.34716       26.09480        4.83390
O         69.99700       28.96261        4.74316
H         70.46732       29.82675        4.64631
H         69.09726       29.21313        5.06938

Ca 1.0



