%chk=holoCaM.loop3.water2.frame94.chk
%nprocshared=20
%mem=10GB
%nosave
#b3lyp/svp scf=(tight,noincore,xqc) Test 
#IOP(5/87=12) Density=Current Pop=(MK,readradii) iop(6/33=2) iop(6/42=6)

holoCaM.loop3.water2.frame94 

   0  1 
C         91.17915       13.22039       37.91207
C         90.02812       12.41368       37.38513
O         90.08222       11.19613       37.46174
H         92.10090       12.97726       37.34421
H         90.98601       14.31062       37.82323
H         91.33467       12.98068       38.98508
N         88.93950       13.03625       36.85250
C         87.73641       12.34465       36.39982
C         87.87100       11.94790       34.92800
O         87.15047       12.47000       34.08794
C         86.53414       13.28546       36.65430
C         85.18668       12.65083       36.49139
O         85.06341       11.46934       36.21131
O         84.09507       13.40549       36.70285
H         88.92897       14.06848       36.85811
H         87.57074       11.44030       37.02451
H         86.60716       14.17144       35.98700
H         86.57661       13.65017       37.70044
N         88.81105       11.04084       34.54213
C         89.06378       10.67326       33.15061
C         87.88408        9.95018       32.53374
O         87.38106       10.43998       31.53065
C         90.37843        9.86405       33.03873
C         91.61317       10.71118       33.44461
C         91.91702       11.84052       32.43672
C         93.04925       12.75447       32.91541
N         93.31988       13.79716       31.92340
H         89.40251       10.61872       35.26750
H         89.19275       11.59698       32.55902
H         90.52905        9.50440       31.99736
H         90.30586        8.97232       33.69970
H         92.50490       10.04956       33.49228
H         91.46053       11.13733       34.45885
H         91.04338       12.50010       32.28813
H         92.18332       11.38405       31.45826
H         93.97296       12.16329       33.09456
H         92.74340       13.23446       33.87292
H         94.05800       14.44021       32.28935
H         93.65637       13.36379       31.03289
H         92.45428       14.35442       31.73413
N         87.35399        8.81203       33.07542
C         86.16065        8.18029       32.49688
C         84.98066        9.15076       32.41601
O         84.09530        8.92829       31.60128
C         85.74849        6.87524       33.20913
C         85.38850        7.07713       34.65254
O         86.33091        7.46108       35.53038
O         84.25440        6.85218       35.04369
H         87.80550        8.41105       33.90831
H         86.42745        7.90934       31.45057
H         86.57463        6.13493       33.15680
H         84.87421        6.44538       32.67095
N         84.94834       10.28784       33.16748
C         84.00874       11.37056       32.95102
C         82.57531       10.99539       33.20489
O         81.77286       11.10764       32.28994
H         85.67398       10.43890       33.87905
H         84.12929       11.73804       31.90798
H         84.26169       12.21422       33.62865
N         82.17173       10.60511       34.44664
C         80.76903       10.36201       34.78564
C         80.24928       11.35342       35.82770
O         79.05470       11.33206       36.09991
C         80.56172        8.90018       35.22933
C         81.21864        8.55390       36.54685
N         80.47278        8.12487       37.59056
O         82.43004        8.64233       36.67175
H         82.88734       10.51612       35.17955
H         80.14316       10.51081       33.87923
H         80.95304        8.22288       34.43960
H         79.46801        8.71777       35.30942
H         79.45000        8.03179       37.50885
H         80.91840        7.87866       38.48544
N         81.07313       12.24490       36.45312
C         80.63834       13.23923       37.41903
C         81.16616       12.97456       38.81908
O         80.92616       13.79810       39.68492
H         82.07651       12.23145       36.24771
H         79.52924       13.28095       37.49083
H         80.98864       14.23442       37.06952
N         81.80242       11.80430       39.13534
C         82.11756       11.40750       40.50747
C         83.50996       10.81074       40.58870
O         83.80643        9.91348       39.81955
C         81.09187       10.33783       40.92557
C         79.69420       10.91148       40.93035
C         78.74937       10.49635       39.97804
C         79.32911       11.88019       41.88075
C         77.46370       11.04391       39.97261
C         78.03976       12.41967       41.88018
C         77.10255       12.00368       40.92358
O         75.85624       12.51746       40.90865
H         81.93093       11.09180       38.40549
H         82.03250       12.25763       41.21763
H         81.31942        9.93822       41.93779
H         81.15924        9.49267       40.20815
H         79.00970        9.76116       39.23049
H         80.04125       12.21381       42.62529
H         76.74794       10.72170       39.22692
H         77.77163       13.16128       42.62204
H         75.56488       13.17898       41.55223
N         84.39569       11.22312       41.54604
C         85.72339       10.62984       41.70488
C         85.84119        9.91570       43.04320
O         85.49477       10.48711       44.06496
C         86.86489       11.67309       41.50437
C         86.87092       12.81560       42.55362
C         86.80092       12.22627       40.07229
C         88.08445       13.74184       42.43090
H         84.10954       11.96040       42.20418
H         85.89484        9.86397       40.92552
H         87.82419       11.11691       41.60469
H         86.92416       12.38270       43.57187
H         85.94323       13.42052       42.47424
H         87.68563       12.85037       39.83755
H         86.79995       11.39699       39.34134
H         85.87722       12.82342       39.92328
H         88.05478       14.49777       43.24325
H         89.02498       13.15743       42.52677
H         88.08788       14.28941       41.46760
N         86.41914        8.67706       43.10355
C         86.72899        8.00589       44.36377
C         88.20122        8.19847       44.68161
O         88.91652        8.77280       43.87287
C         86.35959        6.51263       44.28411
O         87.11982        5.85548       43.30121
H         86.77913        8.25789       42.23495
H         86.15515        8.46786       45.19538
H         85.26875        6.39245       44.08893
H         86.55613        6.01571       45.25782
H         86.57085        5.82040       42.47503
N         88.72190        7.78332       45.87544
C         90.12816        8.00314       46.20617
C         91.06202        7.19595       45.31604
O         92.25248        7.48077       45.31235
C         90.40426        7.68999       47.67701
H         88.09600        7.35178       46.57127
H         90.33746        9.08607       46.05090
H         89.74854        8.31358       48.32169
H         90.20855        6.61799       47.88994
H         91.46107        7.92540       47.92724
N         90.60279        6.17728       44.53275
C         91.43591        5.48396       43.55993
C         91.81446        6.45162       42.45805
O         92.98928        6.60377       42.15633
C         90.67025        4.30022       42.95244
H         89.61484        5.89333       44.60702
H         92.34138        5.06659       44.05511
H         89.74121        4.63458       42.44305
H         91.31053        3.77055       42.21479
H         90.39321        3.58190       43.75316
N         90.83276        7.16395       41.83325
C         91.06787        8.11695       40.75126
C         91.92224        9.30602       41.18875
O         92.31190       10.08241       40.32638
C         89.72181        8.67718       40.23565
C         88.74474        7.61354       39.70074
C         87.38985        8.26911       39.47738
O         86.37880        7.34198       39.22106
O         87.40617        9.18112       38.42042
H         89.86780        7.00786       42.15470
H         91.58855        7.58194       39.92661
H         89.90191        9.42178       39.43075
H         89.23862        9.20344       41.08943
H         88.57838        6.82284       40.45748
H         89.12964        7.13367       38.77549
N         92.22638        9.54548       42.49662
C         93.02388       10.67896       42.90952
H         94.03459       10.61812       42.45384
H         92.52952       11.62442       42.60092
H         93.13234       10.68067       44.01564
H         91.87082        8.92957       43.23623
Ca        85.31629        8.65541       37.70262
O         83.28743        7.03037       39.59728
H         82.94338        6.10329       39.55905
H         82.90840        7.40224       40.43296
O         85.13031        5.32433       37.57888
H         84.53275        4.55680       37.76080
H         85.84182        4.95669       36.99679

Ca 1.0



