%chk=holoCaM.loop1.water2.frame33.chk
%nprocshared=20
%mem=10GB
%nosave
#b3lyp/svp scf=(tight,noincore,xqc) Test 
#IOP(5/87=12) Density=Current Pop=(MK,readradii) iop(6/33=2) iop(6/42=6)

holoCaM.loop1.water2.frame33 

   0  1 
C         67.24571      106.47523       -0.96446
C         66.55446      107.40776       -1.91651
O         66.23893      108.52281       -1.52728
H         68.19695      106.93159       -0.61933
H         66.59033      106.28623       -0.08903
H         67.47804      105.50131       -1.44578
N         66.29401      107.01741       -3.19475
C         65.64053      107.87804       -4.17392
C         64.21567      108.21356       -3.73144
O         63.37525      107.32541       -3.69728
C         65.65129      107.16640       -5.54114
C         64.94888      107.93784       -6.60581
O         63.97942      107.44838       -7.15726
O         65.38652      109.15451       -6.96998
H         66.60030      106.07536       -3.48598
H         66.23946      108.81031       -4.26410
H         65.15699      106.17463       -5.43624
H         66.70207      106.99440       -5.86254
N         63.89648      109.47876       -3.32589
C         62.59890      109.84045       -2.76731
C         61.50993      110.10046       -3.81370
O         60.36524      110.23995       -3.40659
C         62.74327      111.07464       -1.82741
C         62.95525      112.42384       -2.55443
C         63.10580      113.58128       -1.54953
C         62.99885      114.97637       -2.19686
N         64.04897      115.23841       -3.18054
H         64.65769      110.15520       -3.24453
H         62.28680      108.99633       -2.11272
H         63.58155      110.88927       -1.11860
H         61.81245      111.16710       -1.22616
H         62.05841      112.62112       -3.17489
H         63.84547      112.38724       -3.21569
H         64.06824      113.48008       -1.00103
H         62.27840      113.52177       -0.80931
H         63.06224      115.74115       -1.39030
H         62.00239      115.08199       -2.68167
H         63.92647      116.21067       -3.54770
H         64.99096      115.16236       -2.73399
H         63.97351      114.57585       -3.98410
N         61.78935      110.30535       -5.13999
C         60.78318      110.81611       -6.08931
C         60.81748      110.13705       -7.46063
O         60.27078      110.68295       -8.40895
C         60.89489      112.35905       -6.16522
C         62.22989      112.84620       -6.63971
O         62.55910      114.00517       -6.44556
O         63.09797      111.98160       -7.18847
H         62.77454      110.27338       -5.44037
H         59.75853      110.63932       -5.69853
H         60.75107      112.72986       -5.12697
H         60.09000      112.80714       -6.78538
N         61.34049      108.89229       -7.61037
C         61.25542      108.10285       -8.83171
C         62.00409      108.65205      -10.03024
O         61.45080      108.62255      -11.12039
H         61.74446      108.42761       -6.78568
H         60.18935      107.93056       -9.10004
H         61.69559      107.10570       -8.61665
N         63.29028      109.08674       -9.92537
C         64.14166      109.38992      -11.07600
C         65.40502      108.52199      -11.08250
O         66.22032      108.69456      -11.97839
C         64.44751      110.90201      -11.17316
C         64.94118      111.55178       -9.91424
O         64.34980      112.51984       -9.46704
O         66.04435      111.11342       -9.29240
H         63.70177      109.17449       -8.98676
H         63.62498      109.14252      -12.02959
H         63.51032      111.42177      -11.47128
H         65.18529      111.07181      -11.98751
N         65.61183      107.52562      -10.16817
C         66.75602      106.62597      -10.20266
C         68.08465      107.27123       -9.86601
O         69.07711      106.55561       -9.89163
H         64.90150      107.32687       -9.45568
H         66.81100      106.14927      -11.20505
H         66.59676      105.81924       -9.45332
N         68.19870      108.58707       -9.52489
C         69.46268      109.21946       -9.16358
C         69.40163      109.76634       -7.74513
O         68.33520      109.79531       -7.14275
C         69.83079      110.32970      -10.17981
C         70.07883      109.76569      -11.58847
O         68.84843      111.33553      -10.21041
H         67.35750      109.16827       -9.49897
H         70.27997      108.46494       -9.17264
H         70.78449      110.80427       -9.86410
H         68.10158      111.02665      -10.78708
H         70.90682      109.02663      -11.56465
H         69.16780      109.27040      -11.98705
H         70.36068      110.59102      -12.27673
N         70.55269      110.14769       -7.12475
C         70.63599      110.59629       -5.73916
C         71.33698      111.95402       -5.67735
O         72.39154      112.13906       -6.26873
C         71.30902      109.48308       -4.87287
C         70.31986      108.27779       -4.77738
C         71.66868      109.99468       -3.46553
C         70.79051      107.10227       -3.92041
H         71.44068      110.04414       -7.64139
H         69.62054      110.73358       -5.30266
H         72.26062      109.16575       -5.35312
H         70.11963      107.88659       -5.79696
H         69.35157      108.62479       -4.34851
H         72.36717      110.85361       -3.52363
H         70.76239      110.29519       -2.91275
H         72.19749      109.21436       -2.88291
H         70.01892      106.30235       -3.94897
H         71.74662      106.69549       -4.30658
H         70.90510      107.39844       -2.85729
N         70.79349      112.93173       -4.90129
C         71.28934      114.29046       -4.70865
C         71.88239      114.41783       -3.30962
O         72.01475      113.41229       -2.63353
C         70.10364      115.28341       -4.88686
C         69.47834      115.16040       -6.28192
O         69.14158      115.04129       -3.88798
H         69.96682      112.68255       -4.35995
H         72.09014      114.53345       -5.44087
H         70.46912      116.32569       -4.77800
H         68.38017      115.65982       -4.03823
H         68.64344      115.88550       -6.39058
H         70.23636      115.37865       -7.06223
H         69.07766      114.14009       -6.43978
N         72.27263      115.62355       -2.80980
C         72.84518      115.80112       -1.47287
C         71.89312      115.34153       -0.36714
O         72.29602      114.53099        0.45438
C         73.27765      117.27413       -1.21844
C         74.34609      117.76116       -2.21065
O         72.18411      118.15953       -1.19027
H         72.16694      116.44703       -3.41533
H         73.77339      115.18855       -1.40622
H         73.75048      117.30707       -0.21211
H         71.82060      118.23742       -2.10922
H         73.95848      117.79313       -3.24960
H         74.67189      118.78611       -1.93534
H         75.23003      117.08957       -2.18271
N         70.62156      115.82870       -0.28132
C         69.67095      115.46307        0.77574
C         69.41214      113.96707        0.78881
O         69.57503      113.33608        1.82380
C         68.33056      116.20876        0.57650
C         68.47586      117.72547        0.78649
C         67.14634      118.44736        0.52072
C         67.23894      119.97134        0.71450
N         67.48407      120.34410        2.10953
H         70.31392      116.48410       -1.01410
H         70.07914      115.75585        1.76923
H         67.59032      115.83657        1.32009
H         67.93440      115.99704       -0.44173
H         69.24114      118.14303        0.09940
H         68.80764      117.89515        1.83192
H         66.34657      118.04159        1.17781
H         66.85665      118.25642       -0.53621
H         66.27111      120.41768        0.39561
H         68.03805      120.39068        0.06343
H         67.46739      121.38644        2.18934
H         66.73455      119.94969        2.72341
H         68.42017      120.00994        2.42891
N         69.02867      113.33705       -0.35041
C         68.77772      111.89844       -0.46444
C         69.97791      111.08005       -0.00982
O         69.78605      110.01788        0.56547
C         68.47539      111.57017       -1.93733
C         67.14711      112.17897       -2.40528
C         67.00986      112.16830       -3.89885
O         66.10595      111.38365       -4.47692
O         67.63718      112.94662       -4.58969
H         68.95530      113.92169       -1.19742
H         67.90333      111.60445        0.15835
H         68.42805      110.47130       -2.11088
H         69.31673      111.97773       -2.51418
H         67.02366      113.23545       -2.09108
H         66.32663      111.59489       -1.93450
N         71.24536      111.51943       -0.22347
C         72.41796      110.77841        0.18092
H         73.33238      111.35399       -0.08174
H         72.40611      110.61462        1.27870
H         72.44993      109.80269       -0.34663
H         71.38436      112.42548       -0.67303
Ca        65.18312      111.89336       -6.43051
O         65.58653      115.00849       -6.30427
H         65.08923      114.54048       -7.02066
H         65.74928      115.91233       -6.67283
O         67.61037      113.38881       -8.45133
H         67.26881      114.31537       -8.39336
H         68.53713      113.49032       -8.78391

Ca 1.0



