%chk=holoCaM.loop3.water2.frame394.chk
%nprocshared=20
%mem=10GB
%nosave
#b3lyp/svp scf=(tight,noincore,xqc) Test 
#IOP(5/87=12) Density=Current Pop=(MK,readradii) iop(6/33=2) iop(6/42=6)

holoCaM.loop3.water2.frame394 

   0  1 
C         84.54958       40.80391       72.45147
C         83.23392       40.11157       72.61094
O         83.19675       38.88917       72.64482
H         85.37512       40.06514       72.37833
H         84.53133       41.42575       71.53318
H         84.72875       41.45500       73.33360
N         82.09876       40.84710       72.75012
C         80.80369       40.23283       72.98403
C         80.36029       39.44235       71.76360
O         80.16331       40.01493       70.70117
C         79.78949       41.30397       73.39653
C         78.51379       40.74558       73.93773
O         77.61908       41.60380       74.42885
O         78.29334       39.54582       73.99093
H         82.17862       41.87653       72.75298
H         80.91659       39.55860       73.85672
H         79.57753       41.99344       72.55039
H         80.23396       41.89667       74.22641
N         80.24475       38.09191       71.85495
C         79.95237       37.20831       70.73365
C         78.55158       37.41790       70.17657
O         78.40153       37.48590       68.96503
C         80.14314       35.74348       71.18974
C         80.19741       34.76247       70.00989
C         80.52292       33.34252       70.49233
C         80.72330       32.39089       69.30515
N         81.04427       31.03989       69.76432
H         80.45385       37.66040       72.76590
H         80.71121       37.39229       69.94020
H         79.35342       35.45331       71.91810
H         81.12995       35.67588       71.70127
H         81.00679       35.09326       69.32158
H         79.23425       34.76290       69.45578
H         79.69940       32.97426       71.14228
H         81.46376       33.36121       71.08643
H         81.55911       32.76616       68.67203
H         79.80004       32.36110       68.68582
H         81.91795       31.05163       70.33975
H         80.25340       30.65646       70.33087
H         81.19710       30.42357       68.93354
N         77.48047       37.51854       71.01457
C         76.08724       37.60127       70.56532
C         75.46080       38.97791       70.80416
O         74.31446       39.16479       70.41921
C         75.23788       36.48339       71.22562
C         75.13810       36.65438       72.71450
O         76.23732       36.57096       73.48368
O         74.06829       36.94682       73.22588
H         77.68363       37.55091       72.01984
H         76.04085       37.43583       69.46697
H         75.66026       35.48186       71.00021
H         74.21290       36.52497       70.79401
N         76.15360       40.00180       71.37855
C         75.62960       41.35289       71.50389
C         74.43478       41.47918       72.42601
O         73.40474       41.96187       71.97621
H         77.12557       39.85258       71.67601
H         75.36987       41.73381       70.49045
H         76.42874       42.01102       71.90686
N         74.51874       41.13073       73.74433
C         73.44960       41.38411       74.71452
C         73.88682       42.34253       75.82846
O         73.09105       42.58792       76.72274
C         72.87234       40.05071       75.26094
C         73.73617       39.16652       76.18920
N         73.19337       39.03766       77.53429
O         75.07244       39.53478       76.24657
H         75.38866       40.69379       74.07397
H         72.59433       41.87934       74.20597
H         72.58939       39.42713       74.38620
H         71.92073       40.27340       75.79053
H         72.26411       38.56593       77.45783
H         73.81008       38.37702       78.06137
N         75.12820       42.91939       75.84367
C         75.62165       43.79265       76.90066
C         76.55300       43.07168       77.86875
O         76.99602       43.70514       78.81676
H         75.77585       42.73402       75.07898
H         74.77487       44.19160       77.49790
H         76.13598       44.66447       76.44009
N         76.81143       41.73453       77.75756
C         77.47379       40.93477       78.78574
C         78.39953       39.88709       78.18492
O         78.06058       39.29381       77.16970
C         76.41563       40.20593       79.64206
C         75.59350       41.18514       80.44579
C         74.47707       41.82600       79.88467
C         75.96315       41.48597       81.76694
C         73.74997       42.76096       80.62935
C         75.23934       42.42243       82.50856
C         74.13105       43.06633       81.94084
O         73.43053       43.97946       82.64329
H         76.39189       41.22813       76.97815
H         78.05372       41.57582       79.48698
H         76.95778       39.54526       80.35447
H         75.76021       39.54345       79.03631
H         74.17511       41.60381       78.87092
H         76.82418       41.00818       82.21744
H         72.89419       43.25355       80.18470
H         75.54622       42.65094       83.52132
H         73.67073       44.22612       83.54816
N         79.54671       39.53713       78.83837
C         80.46089       38.48673       78.39317
C         80.51915       37.38319       79.44766
O         80.98177       37.62361       80.55457
C         81.85401       39.12376       78.09969
C         81.72416       40.03014       76.84868
C         82.95629       38.06805       77.89272
C         82.97153       40.84653       76.51649
H         79.78297       40.03157       79.71295
H         80.09426       38.02118       77.45102
H         82.14846       39.73471       78.98203
H         80.89565       40.75523       76.99322
H         81.47313       39.38933       75.97987
H         82.73836       37.43993       77.01074
H         83.94541       38.54628       77.75278
H         83.06116       37.42426       78.78866
H         83.83937       40.19882       76.28269
H         82.76859       41.46580       75.61705
H         83.22094       41.51884       77.36346
N         80.04645       36.13553       79.15250
C         80.09308       34.99277       80.06825
C         81.51437       34.46284       80.21591
O         82.42108       35.00984       79.61415
C         79.17517       33.86970       79.53394
O         79.60999       33.43283       78.27597
H         79.60686       35.99716       78.23055
H         79.69062       35.29493       81.05974
H         78.14113       34.27060       79.45756
H         79.15538       33.00830       80.23498
H         78.88817       32.85695       77.91276
N         81.77679       33.36247       80.97672
C         83.09037       32.72337       81.03054
C         83.49079       32.20184       79.65599
O         84.58345       32.50408       79.19837
C         83.07260       31.55736       82.02718
H         81.00393       32.93886       81.51205
H         83.84980       33.44994       81.39808
H         82.33255       30.78433       81.72960
H         84.07863       31.08743       82.08239
H         82.81023       31.93131       83.03988
N         82.63105       31.42047       78.93878
C         82.93237       30.84863       77.62549
C         83.34367       31.91026       76.62245
O         84.40397       31.78682       76.02541
C         81.70491       30.09611       77.09143
H         81.70424       31.22962       79.35103
H         83.76147       30.11403       77.72993
H         80.84002       30.78446       76.97006
H         81.93278       29.63574       76.10634
H         81.41437       29.28920       77.79690
N         82.55393       32.99673       76.41169
C         82.87631       34.08399       75.48937
C         84.24787       34.65665       75.80921
O         85.09574       34.68632       74.92818
C         81.78839       35.17968       75.58027
C         80.43667       34.69896       75.02377
C         79.34929       35.70588       75.27132
O         78.25298       35.34889       75.96623
O         79.44567       36.84488       74.84801
H         81.69653       33.06527       76.97517
H         82.90185       33.70271       74.44329
H         82.09932       36.07357       74.99427
H         81.66905       35.47351       76.64555
H         80.12971       33.74629       75.50104
H         80.53834       34.51692       73.93314
N         84.54477       35.08470       77.06455
C         85.84096       35.58948       77.46688
H         86.56261       35.62533       76.62486
H         85.72575       36.61201       77.88118
H         86.25758       34.93026       78.25823
H         83.82293       35.02105       77.78484
Ca        76.05513       37.73796       75.35303
O         74.52691       35.46318       76.37660
H         73.79014       36.07829       76.13332
H         74.59709       35.54077       77.36072
O         76.96629       36.88588       78.31915
H         77.39946       37.09079       79.18521
H         76.85309       35.90339       78.32366

Ca 1.0



