%chk=holoCaM.loop3.water2.frame376.chk
%nprocshared=20
%mem=10GB
%nosave
#b3lyp/svp scf=(tight,noincore,xqc) Test 
#IOP(5/87=12) Density=Current Pop=(MK,readradii) iop(6/33=2) iop(6/42=6)

holoCaM.loop3.water2.frame376 

   0  1 
C         -3.45241       77.04737       55.22869
C         -2.77905       75.72984       54.99142
O         -2.72222       75.27958       53.85550
H         -4.29769       76.91657       55.93473
H         -2.71905       77.75996       55.66427
H         -3.83390       77.47269       54.27618
N         -2.20012       75.07023       56.03115
C         -1.44144       73.84167       55.84875
C         -2.35710       72.68686       55.46365
O         -3.22301       72.31557       56.24394
C         -0.64261       73.53364       57.12308
C          0.36733       72.44134       56.94511
O          1.11644       72.18289       57.87156
O          0.47576       71.74231       55.79559
H         -2.23808       75.50676       56.96623
H         -0.69195       74.04016       55.05097
H         -1.32656       73.28746       57.96539
H         -0.06957       74.44727       57.39537
N         -2.23078       72.09823       54.24309
C         -3.11487       71.04352       53.75377
C         -3.01164       69.73348       54.52429
O         -4.00932       69.02738       54.57350
C         -2.90509       70.81016       52.23728
C         -1.51476       70.26080       51.86284
C         -1.31752       70.26603       50.34074
C          0.09830       69.80526       49.96473
N          0.33412       69.95373       48.52906
H         -1.52284       72.48415       53.60464
H         -4.15943       71.41740       53.85281
H         -3.05395       71.79231       51.73511
H         -3.68187       70.11398       51.85032
H         -1.38945       69.23204       52.26243
H         -0.72701       70.90106       52.30426
H         -1.46341       71.30356       49.97014
H         -2.07058       69.61258       49.84926
H          0.23945       68.74394       50.26517
H          0.84814       70.41737       50.50823
H          0.23921       70.95949       48.25466
H          1.30685       69.64040       48.30781
H         -0.34597       69.37370       47.98723
N         -1.83046       69.29084       55.05330
C         -1.67741       67.96543       55.66120
C         -1.19523       67.99915       57.10954
O         -1.08539       66.93234       57.69965
C         -0.75011       67.11284       54.77341
C          0.64576       67.65740       54.68569
O          1.42377       67.69465       55.78214
O          1.08794       68.04383       53.61618
H         -0.99441       69.88319       54.95843
H         -2.65720       67.44054       55.68068
H         -1.19475       67.07422       53.75464
H         -0.69703       66.07184       55.15799
N         -0.91409       69.16150       57.76355
C         -0.52812       69.20258       59.16400
C          0.80108       68.53544       59.44882
O          0.82456       67.60095       60.23735
H         -1.03042       70.06182       57.28172
H         -1.33054       68.72672       59.77125
H         -0.44769       70.26139       59.49220
N          1.95838       69.01717       58.90470
C          3.28867       68.52861       59.28411
C          4.07247       69.60403       60.04774
O          5.15553       69.29717       60.52718
C          4.06786       67.99687       58.04350
C          4.76341       69.08614       57.20809
N          5.23437       68.63339       55.90997
O          4.01523       70.24786       57.11809
H          1.88366       69.80125       58.24743
H          3.16449       67.66601       59.97351
H          3.37863       67.38579       57.42533
H          4.88707       67.32796       58.38429
H          5.93949       67.87864       56.06815
H          5.74303       69.43013       55.46205
N          3.59985       70.88610       60.18444
C          4.28968       71.94770       60.90226
C          4.76410       73.07447       59.99346
O          5.32449       74.02695       60.51225
H          2.70336       71.15605       59.76005
H          5.18529       71.55710       61.43110
H          3.59627       72.35507       61.66913
N          4.65529       72.99833       58.63251
C          5.28147       73.94022       57.70656
C          4.33822       74.34255       56.57776
O          3.28192       73.74903       56.42367
C          6.48964       73.22440       57.05997
C          7.48046       72.73055       58.08638
C          7.67499       71.35066       58.27835
C          8.21569       73.64027       58.86129
C          8.58498       70.89082       59.23354
C          9.13170       73.17815       59.81136
C          9.31793       71.80064       60.00147
O         10.19648       71.34129       60.91511
H          4.21945       72.17642       58.22584
H          5.61935       74.84892       58.24880
H          7.01482       73.88689       56.33873
H          6.09773       72.35341       56.48876
H          7.11824       70.62808       57.69623
H          8.08289       74.70591       58.72511
H          8.72069       69.82567       59.37573
H          9.69551       73.89134       60.39863
H         10.72691       71.93664       61.46353
N          4.70328       75.33951       55.71578
C          3.97145       75.67688       54.49540
C          4.96651       75.70846       53.34322
O          5.83444       76.57067       53.33236
C          3.23002       77.04223       54.65190
C          2.10643       76.89410       55.71255
C          2.64596       77.52979       53.30824
C          1.32608       78.18063       55.98837
H          5.56115       75.87255       55.92337
H          3.20342       74.90153       54.27632
H          3.96349       77.80806       54.98988
H          2.55508       76.56859       56.67433
H          1.38440       76.11266       55.38453
H          2.18480       78.53173       53.40680
H          3.44363       77.65738       52.55197
H          1.88746       76.81972       52.92747
H          0.57411       77.98829       56.78204
H          2.01319       78.98310       56.32847
H          0.76977       78.52084       55.09140
N          4.90284       74.78915       52.33727
C          5.80624       74.82123       51.18773
C          5.46284       75.97910       50.25425
O          4.47860       76.66691       50.48019
C          5.74700       73.48072       50.42819
O          4.45674       73.24616       49.93942
H          4.20921       74.03088       52.40870
H          6.84983       74.93406       51.55697
H          6.03349       72.66710       51.13255
H          6.46837       73.48703       49.58205
H          4.46290       72.32752       49.56437
N          6.23270       76.23584       49.15879
C          5.91464       77.27226       48.17735
C          4.57918       76.99331       47.51408
O          3.78298       77.91009       47.37470
C          7.00556       77.35059       47.10671
H          7.07300       75.65710       49.00725
H          5.88404       78.26831       48.67493
H          7.09729       76.38969       46.55833
H          6.76519       78.15931       46.38218
H          7.97994       77.59293       47.58213
N          4.26037       75.73140       47.10786
C          2.97027       75.37039       46.52746
C          1.83032       75.70590       47.47671
O          0.91355       76.41243       47.08164
C          2.94346       73.86890       46.20535
H          4.96061       74.98640       47.24976
H          2.83001       75.92102       45.57066
H          1.97351       73.59162       45.74020
H          3.75746       73.61908       45.49183
H          3.08450       73.25959       47.12438
N          1.83725       75.23527       48.75599
C          0.77030       75.48800       49.72633
C          0.58770       76.96582       50.04965
O         -0.42200       77.29985       50.65473
C          1.08272       74.76306       51.05136
C          1.07521       73.23882       50.92372
C          1.57178       72.61808       52.19601
O          2.53474       71.86930       52.17936
O          0.97275       72.89997       53.36441
H          2.64188       74.66320       49.04132
H         -0.18544       75.10810       49.29962
H          0.33277       75.03747       51.82790
H          2.08541       75.10127       51.39316
H          1.72106       72.89708       50.08897
H          0.03792       72.90705       50.71975
N          1.52901       77.89604       49.73096
C          1.40455       79.30590       50.03502
H          1.47782       79.88940       49.09363
H          0.44094       79.55165       50.52752
H          2.23296       79.60728       50.70980
H          2.39636       77.59957       49.27789
Ca         2.24028       70.36121       55.73837
O          3.92107       68.46214       53.19486
H          4.87687       68.66694       53.03927
H          3.92916       67.63832       53.74475
O          4.93780       71.91732       54.09780
H          5.87198       72.22822       53.99432
H          4.84154       71.20186       53.42126

Ca 1.0



