%chk=holoCaM.loop1.water2.frame483.chk
%nprocshared=20
%mem=10GB
%nosave
#b3lyp/svp scf=(tight,noincore,xqc) Test 
#IOP(5/87=12) Density=Current Pop=(MK,readradii) iop(6/33=2) iop(6/42=6)

holoCaM.loop1.water2.frame483 

   0  1 
C         67.08353       95.13114       67.36983
C         65.82167       95.75482       67.87900
O         65.25959       96.61189       67.21213
H         67.90416       95.30297       68.09644
H         66.92566       94.03762       67.24958
H         67.36718       95.56065       66.38639
N         65.29750       95.33495       69.06058
C         64.02984       95.82600       69.57865
C         64.13510       97.30596       69.94215
O         64.84956       97.65090       70.87303
C         63.61999       94.95043       70.77504
C         62.24227       95.18371       71.29020
O         61.80361       94.39852       72.28208
O         61.50645       96.02958       70.81171
H         65.79575       94.58811       69.57141
H         63.26794       95.67211       68.78082
H         64.34602       95.07724       71.60727
H         63.64607       93.88712       70.44898
N         63.48656       98.23828       69.18795
C         63.64222       99.68428       69.35628
C         62.70105      100.25876       70.42270
O         62.87871      101.40904       70.79630
C         63.37542      100.34808       67.97897
C         63.64150      101.85921       67.89038
C         63.29593      102.36716       66.47981
C         63.55033      103.87050       66.27989
N         62.74628      104.70083       67.17923
H         62.98013       97.89562       68.36266
H         64.70087       99.88852       69.63381
H         62.31716      100.15107       67.69639
H         64.03027       99.85216       67.22705
H         64.71083      102.06351       68.11701
H         63.00257      102.39238       68.61713
H         62.22462      102.15535       66.26714
H         63.91040      101.81576       65.73445
H         63.28355      104.12013       65.22839
H         64.62932      104.09833       66.42274
H         62.86959      105.70463       66.91449
H         61.73356      104.45255       67.09710
H         63.06497      104.58736       68.16757
N         61.64257       99.54457       70.90738
C         60.63769      100.08496       71.83287
C         60.52149       99.26787       73.11699
O         59.73158       99.64627       73.97145
C         59.25034      100.19266       71.13940
C         58.73378       98.86565       70.65039
O         57.71613       98.37223       71.10729
O         59.42609       98.23983       69.68746
H         61.51749       98.58697       70.56589
H         60.91624      101.11771       72.13673
H         59.32486      100.88043       70.26832
H         58.52379      100.63956       71.85316
N         61.27559       98.15567       73.34289
C         61.21004       97.38412       74.57154
C         59.87537       96.69987       74.77851
O         59.26301       96.88941       75.81923
H         61.96401       97.84900       72.64325
H         61.45638       98.03873       75.43559
H         61.98064       96.58408       74.52334
N         59.40015       95.83700       73.83927
C         58.21716       94.99547       74.00525
C         58.58575       93.50714       73.94387
O         57.68813       92.68034       73.85965
C         57.12418       95.37855       72.97738
C         57.46794       95.20781       71.52137
O         56.63051       95.47919       70.67642
O         58.67383       94.76971       71.12742
H         59.93387       95.74533       72.96870
H         57.74900       95.16232       75.00021
H         56.85051       96.44302       73.14153
H         56.22083       94.76389       73.18524
N         59.88338       93.08727       74.05416
C         60.29337       91.68925       74.04255
C         60.20901       91.00055       72.68873
O         60.52112       89.81815       72.64550
H         60.62005       93.77687       74.24780
H         59.69124       91.13150       74.79298
H         61.35792       91.62858       74.35702
N         59.78895       91.63482       71.55420
C         59.63154       90.96075       70.26293
C         60.23328       91.76099       69.10667
O         60.70546       92.87251       69.31043
C         58.12910       90.67011       70.01209
C         57.56639       89.64981       71.01029
O         57.36285       91.84788       70.03071
H         59.50180       92.61487       71.61826
H         60.16391       89.98375       70.27394
H         58.01300       90.20568       69.01091
H         57.32488       92.18123       70.96475
H         56.50661       89.43236       70.76229
H         58.14397       88.70252       70.94977
H         57.61454       90.03498       72.05020
N         60.26553       91.21480       67.85118
C         60.83450       91.86214       66.66955
C         59.77738       91.95340       65.56348
O         59.35247       90.92804       65.04784
C         62.10726       91.06447       66.22782
C         63.22308       91.27674       67.29041
C         62.60223       91.46282       64.82567
C         64.51108       90.49151       67.03689
H         59.89994       90.25809       67.72575
H         61.15508       92.89924       66.90934
H         61.84387       89.98385       66.17276
H         62.84472       90.96447       68.28646
H         63.48097       92.35848       67.34381
H         61.81897       91.27920       64.06353
H         62.89833       92.52581       64.80312
H         63.46163       90.83595       64.51315
H         64.29982       89.40269       67.00150
H         65.00585       90.80883       66.09691
H         65.22544       90.69033       67.86419
N         59.31595       93.17390       65.15226
C         58.36881       93.37993       64.05025
C         59.03764       93.13803       62.69651
O         60.21238       92.80967       62.65252
C         57.78450       94.82945       64.06894
C         56.99027       95.14554       65.33792
O         58.77547       95.79923       63.83359
H         59.64337       93.99811       65.66749
H         57.50847       92.68542       64.17392
H         57.03834       94.92979       63.25633
H         59.24902       95.98229       64.68452
H         57.65547       95.15752       66.21917
H         56.52667       96.14904       65.23840
H         56.18235       94.39788       65.48578
N         58.34121       93.33984       61.53835
C         58.92661       93.25254       60.20013
C         60.06313       94.25885       60.05138
O         61.14054       93.88038       59.61624
C         57.84329       93.52677       59.12268
C         58.37474       93.27519       57.70618
O         56.74304       92.68011       59.33936
H         57.34649       93.59587       61.60823
H         59.30725       92.21863       60.04016
H         57.52199       94.59298       59.21305
H         55.93655       93.16753       59.02413
H         59.24449       93.92540       57.47863
H         58.68075       92.21178       57.59917
H         57.57748       93.48732       56.96285
N         59.87722       95.56483       60.40106
C         60.90833       96.59973       60.31153
C         62.12528       96.23087       61.14811
O         63.22536       96.19707       60.61484
C         60.29637       97.96122       60.73107
C         61.26407       99.15011       60.59599
C         60.50762      100.48452       60.72390
C         61.45260      101.68878       60.59873
N         60.70050      102.94445       60.55904
H         58.94839       95.83290       60.76300
H         61.22354       96.70143       59.24893
H         59.90781       97.92203       61.77358
H         59.43431       98.13964       60.05056
H         61.73678       99.12564       59.59034
H         62.06005       99.07350       61.36895
H         59.97301      100.53913       61.69774
H         59.75624      100.53550       59.90484
H         62.04980      101.60406       59.66397
H         62.15248      101.69783       61.46375
H         60.10460      103.04452       61.41233
H         61.37061      103.74607       60.51480
H         60.09692      102.96935       59.70433
N         61.99096       95.91562       62.46505
C         63.11066       95.54403       63.33716
C         63.82246       94.27886       62.87555
O         64.92955       94.03724       63.33631
C         62.59307       95.37234       64.78534
C         62.14463       96.73783       65.32642
C         61.29878       96.70732       66.55824
O         60.92879       97.77549       67.01773
O         60.83899       95.57329       67.12042
H         61.04105       95.94486       62.85681
H         63.85966       96.36760       63.31027
H         63.37416       94.96466       65.46584
H         61.74807       94.65151       64.75667
H         61.52414       97.27092       64.57937
H         63.05333       97.34944       65.51363
N         63.25405       93.42508       61.98027
C         63.90159       92.24165       61.45632
H         64.94233       92.12965       61.82307
H         63.31767       91.34284       61.74393
H         63.92625       92.30814       60.34752
H         62.30326       93.60617       61.65488
Ca        59.47910       96.18060       68.79979
O         57.83008       93.77466       68.22176
H         57.86610       92.96630       67.65174
H         56.86995       94.01492       68.24814
O         57.19782       97.72648       67.26813
H         56.38664       97.22955       67.54308
H         57.37456       98.34390       68.01973

Ca 1.0



