%chk=holoCaM.loop1.water2.frame266.chk
%nprocshared=20
%mem=10GB
%nosave
#b3lyp/svp scf=(tight,noincore,xqc) Test 
#IOP(5/87=12) Density=Current Pop=(MK,readradii) iop(6/33=2) iop(6/42=6)

holoCaM.loop1.water2.frame266 

   0  1 
C         31.84355       16.45976       59.92652
C         31.50783       16.92672       58.54321
O         32.40460       17.32830       57.81488
H         32.35203       17.27830       60.47541
H         30.92656       16.17717       60.48663
H         32.51123       15.57486       59.87314
N         30.22373       16.87403       58.10059
C         29.83426       17.29551       56.76874
C         29.72670       18.81777       56.71476
O         28.97704       19.38927       57.49342
C         28.51208       16.60416       56.38792
C         28.17887       16.80795       54.95531
O         28.90506       17.64741       54.22128
O         27.22135       16.24966       54.46506
H         29.50520       16.46185       58.71578
H         30.59160       16.91182       56.04198
H         27.67315       16.94401       57.02934
H         28.65013       15.50802       56.51399
N         30.45300       19.53161       55.80883
C         30.51842       20.99301       55.77758
C         29.54909       21.64308       54.79274
O         29.48136       22.86539       54.78497
C         31.94414       21.44363       55.37533
C         33.08185       20.87618       56.23512
C         32.92426       21.25239       57.70776
C         34.18349       20.90937       58.50561
N         34.00368       21.25729       59.91376
H         31.06537       19.00075       55.18657
H         30.27667       21.38677       56.78835
H         32.00058       22.55390       55.41166
H         32.13886       21.14178       54.32300
H         34.02841       21.30554       55.83848
H         33.14515       19.76999       56.13928
H         32.05221       20.71099       58.13449
H         32.74917       22.34700       57.78838
H         35.03813       21.48935       58.08968
H         34.41719       19.82484       58.41692
H         33.27465       20.63963       60.33929
H         34.90753       21.12074       60.41989
H         33.71265       22.25821       60.00591
N         28.81726       20.92214       53.89769
C         28.02909       21.53690       52.83426
C         26.73153       20.78104       52.50923
O         26.08397       21.14877       51.53845
C         28.92998       21.90515       51.61897
C         29.74761       20.80519       50.99728
O         29.73444       19.56470       51.48733
O         30.46052       21.05103       50.03939
H         28.94840       19.91203       53.86484
H         27.65199       22.52645       53.17982
H         29.65880       22.67533       51.95457
H         28.29806       22.36570       50.82993
N         26.18672       19.86377       53.37023
C         24.80175       19.40574       53.25005
C         24.52314       18.35411       52.19478
O         23.35606       18.06432       51.97145
H         26.68487       19.62522       54.23938
H         24.15456       20.29129       53.07109
H         24.47799       18.96520       54.21816
N         25.52074       17.66985       51.57806
C         25.28093       16.54786       50.66626
C         25.22359       15.20458       51.40132
O         25.14079       14.18279       50.73225
C         26.32941       16.54966       49.52769
C         27.73136       16.66039       50.03370
O         28.45558       17.56616       49.65349
O         28.17272       15.80156       50.95836
H         26.48520       17.85842       51.88474
H         24.29175       16.64151       50.16520
H         26.14178       17.40826       48.84943
H         26.23194       15.61846       48.92802
N         25.18731       15.11674       52.76395
C         25.09692       13.84651       53.46999
C         26.32245       12.97385       53.29197
O         26.20766       11.77351       53.49474
H         25.16357       15.97272       53.33001
H         24.19424       13.30334       53.11378
H         24.96520       14.02093       54.56026
N         27.53808       13.50407       52.96744
C         28.74884       12.70271       52.80929
C         30.01163       13.47556       53.19516
O         29.97622       14.67672       53.42077
C         28.87478       12.15382       51.35879
C         27.81777       11.10977       50.98671
O         28.85690       13.19757       50.42266
H         27.61473       14.52079       52.88757
H         28.71313       11.86321       53.53896
H         29.85057       11.63402       51.26159
H         27.92002       13.52048       50.35591
H         26.79708       11.54335       50.99870
H         28.01679       10.74594       49.95602
H         27.87043       10.25056       51.68579
N         31.17095       12.77763       53.35889
C         32.44268       13.33433       53.80909
C         33.51246       12.96701       52.78568
O         33.61423       11.80960       52.40330
C         32.76904       12.76096       55.21920
C         31.70000       13.23071       56.24659
C         34.17210       13.19192       55.70382
C         31.66817       12.36037       57.50100
H         31.13906       11.75629       53.21708
H         32.39218       14.43875       53.92024
H         32.74226       11.65253       55.13543
H         30.68092       13.15535       55.81870
H         31.86715       14.30048       56.51199
H         34.95983       12.84354       55.00652
H         34.23424       14.29717       55.78479
H         34.41102       12.76252       56.69661
H         31.40233       11.32016       57.21132
H         32.63733       12.35347       58.03542
H         30.88475       12.73727       58.19200
N         34.39001       13.91177       52.35626
C         35.47866       13.67812       51.40963
C         36.79602       13.61621       52.15929
O         36.81772       13.81067       53.36322
C         35.50659       14.83610       50.36406
C         34.29028       14.80459       49.43200
O         35.60710       16.07848       51.01635
H         34.33175       14.83671       52.79047
H         35.35778       12.69841       50.89776
H         36.39298       14.76610       49.69908
H         34.69724       16.40848       51.22986
H         33.38157       14.58700       50.01733
H         34.17017       15.78558       48.91968
H         34.41375       14.01712       48.66174
N         37.94694       13.33255       51.49102
C         39.27724       13.36340       52.10529
C         39.58220       14.76525       52.60828
O         40.10711       14.91115       53.70284
C         40.35456       12.90947       51.09302
C         40.19523       11.41583       50.76960
O         40.26677       13.67872       49.92003
H         37.87031       13.12414       50.48412
H         39.32209       12.66169       52.96972
H         41.35705       13.05200       51.55969
H         41.07446       13.47773       49.37998
H         39.19457       11.19378       50.34446
H         40.96828       11.09813       50.03963
H         40.32792       10.81493       51.69557
N         39.18814       15.84399       51.87792
C         39.29084       17.23312       52.31695
C         38.61962       17.41572       53.67464
O         39.26936       17.86943       54.60624
C         38.60153       18.11319       51.24063
C         38.44633       19.60740       51.55399
C         39.74127       20.42351       51.61680
C         40.51990       20.39108       50.29122
N         41.56342       21.41444       50.27421
H         38.72836       15.65678       50.97336
H         40.36198       17.52184       52.40158
H         37.56913       17.73260       51.09843
H         39.11955       17.97984       50.26686
H         37.88582       19.73167       52.50505
H         37.81663       20.04667       50.74840
H         40.39039       20.08824       52.45394
H         39.43025       21.47188       51.81782
H         39.82688       20.58697       49.44296
H         40.97537       19.38618       50.14765
H         42.22687       21.27705       51.06988
H         42.08613       21.35526       49.37066
H         41.12350       22.36207       50.33973
N         37.30655       17.09845       53.84244
C         36.56763       17.31626       55.08683
C         37.02533       16.38133       56.19976
O         36.67251       16.62110       57.34619
C         35.05218       17.11353       54.83979
C         34.52194       18.10489       53.78149
C         33.11463       17.83255       53.34059
O         32.78960       16.73454       52.92413
O         32.24492       18.84797       53.24760
H         36.81043       16.71663       53.03012
H         36.73119       18.36908       55.40846
H         34.47162       17.22756       55.78105
H         34.91764       16.07533       54.48271
H         35.13135       18.05186       52.86390
H         34.60170       19.14243       54.16827
N         37.76079       15.26601       55.93638
C         38.17172       14.33252       56.95990
H         38.87452       14.82592       57.66187
H         37.28453       13.95419       57.51073
H         38.68553       13.46539       56.48938
H         38.01473       15.04120       54.97228
Ca        29.78104       17.48449       52.21444
O         32.26620       18.13179       50.01637
H         32.07527       18.96005       50.52068
H         33.04280       18.36446       49.44968
O         31.19065       15.49290       49.99370
H         30.42438       15.05018       50.42437
H         31.19763       15.13652       49.07027

Ca 1.0



