%chk=holoCaM-CaMKII.loop4.water1.frame327.chk
%nprocshared=20
%mem=10GB
%nosave
#b3lyp/svp scf=(tight,noincore,xqc) Test 
#IOP(5/87=12) Density=Current Pop=(MK,readradii) iop(6/33=2) iop(6/42=6)

holoCaM-CaMKII.loop4.water1.frame327 

   -3  1 
C         48.52015       40.45865       79.90626
C         49.40153       41.29172       80.78815
O         50.36868       41.86702       80.31358
H         47.48837       40.87105       79.92222
H         48.89030       40.45461       78.86038
H         48.49491       39.41537       80.28660
N         49.09989       41.40524       82.10603
C         49.86138       42.20957       83.05311
C         51.28295       41.67171       83.22786
O         51.44059       40.47544       83.42714
C         49.12692       42.19627       84.40221
C         49.68333       43.16542       85.39127
O         49.17292       43.17815       86.62227
O         50.56568       43.95247       85.10000
H         48.25775       40.91033       82.44299
H         49.87254       43.26091       82.69273
H         49.16071       41.17074       84.82977
H         48.06132       42.48050       84.25568
N         52.35843       42.51602       83.21196
C         53.75535       42.08380       83.31555
C         54.39057       42.46269       84.66166
O         55.42778       41.89688       84.97896
C         54.52975       42.65156       82.07918
C         53.95199       42.01153       80.78770
C         56.05459       42.45611       82.16364
C         54.48604       42.60593       79.48431
H         52.18137       43.52066       83.10658
H         53.79958       40.97246       83.29765
H         54.35822       43.75029       82.05010
H         52.85514       42.16321       80.76519
H         54.14780       40.91684       80.79676
H         56.31581       41.38017       82.22407
H         56.56229       42.91211       81.29072
H         56.46757       42.99296       83.04233
H         54.26616       43.69274       79.43788
H         55.57502       42.44017       79.37126
H         53.98279       42.10835       78.62804
N         53.83317       43.36423       85.51816
C         54.37133       43.67016       86.84732
C         53.34353       43.36582       87.95268
O         53.64315       43.61661       89.11159
C         54.94358       45.11032       86.86515
C         53.96740       46.11249       86.35134
O         52.81521       46.27826       87.00142
O         54.18670       46.71878       85.31653
H         52.99125       43.87319       85.22617
H         55.24319       43.02308       87.08744
H         55.83281       45.12962       86.19719
H         55.28290       45.38741       87.88692
N         52.17112       42.71021       87.68391
C         51.27814       42.17124       88.70517
C         50.44008       43.15765       89.50268
O         49.71143       42.68443       90.36418
H         51.96232       42.43059       86.71752
H         51.87990       41.55356       89.40738
H         50.55844       41.48340       88.20910
N         50.46554       44.50946       89.31535
C         49.70129       45.42093       90.17989
C         48.18032       45.35449       90.01816
O         47.49881       46.00281       90.79956
C         50.22019       46.86602       90.04999
C         50.08721       47.50787       88.70176
O         50.66805       48.56217       88.50048
O         49.42369       46.94288       87.68095
H         51.10486       44.89904       88.60829
H         49.92691       45.13204       91.23088
H         51.30693       46.83028       90.28481
H         49.73436       47.52566       90.79961
N         47.57541       44.61149       89.04793
C         46.13336       44.49393       88.88903
C         45.61927       45.09159       87.59288
O         44.41162       45.05083       87.39900
H         48.15232       44.09235       88.39278
H         45.60045       45.01147       89.71469
H         45.85713       43.41848       88.93577
N         46.43511       45.71072       86.68653
C         45.90817       46.48965       85.56875
C         46.77708       46.41120       84.32193
O         47.84877       45.82046       84.34784
C         45.62178       47.94011       86.05534
C         46.75861       48.66115       86.81844
C         47.92128       49.13909       85.97897
N         48.27551       50.44634       85.98309
O         48.57688       48.34823       85.32305
H         47.43965       45.78194       86.88557
H         44.93297       46.05840       85.24861
H         44.79873       47.84129       86.79725
H         45.23494       48.58125       85.23544
H         47.12602       48.00825       87.63514
H         46.30926       49.54691       87.31670
H         47.76212       51.13540       86.55192
H         49.08484       50.77019       85.43294
N         46.32242       46.97381       83.16521
C         47.03694       46.98132       81.89254
C         47.21476       48.42216       81.44619
O         46.22698       49.13683       81.33575
C         46.24616       46.15769       80.83479
C         46.84447       46.29675       79.42097
C         46.23346       44.66847       81.22064
H         45.39054       47.41776       83.17801
H         48.03663       46.51157       81.98866
H         45.19776       46.52842       80.79159
H         46.25525       45.69654       78.69483
H         46.80406       47.35144       79.07592
H         47.89956       45.95265       79.39742
H         45.77240       44.51884       82.21840
H         45.64857       44.08251       80.47967
H         47.27053       44.26478       81.24431
N         48.45315       48.89438       81.12171
C         48.70132       50.24568       80.62614
C         49.14928       50.19630       79.16912
O         49.16904       49.11955       78.58944
C         49.69162       51.01222       81.54344
C         51.16017       50.69174       81.35803
N         51.67996       49.48339       81.66085
O         51.90343       51.56896       80.94259
H         49.24394       48.24373       81.17789
H         47.75610       50.83021       80.65489
H         49.39638       50.89127       82.60835
H         49.57430       52.09304       81.30978
H         51.10452       48.73221       82.05408
H         52.68681       49.30830       81.53093
N         49.52282       51.33045       78.51070
C         49.92533       51.35747       77.10495
C         51.07215       50.39913       76.81551
O         50.98585       49.65015       75.85390
C         50.35837       52.77992       76.69390
C         50.68491       52.80876       75.22035
C         49.66744       52.61918       74.27018
C         52.00891       52.98131       74.78655
C         49.97018       52.59686       72.90740
C         52.31105       52.94916       73.42228
C         51.29152       52.75505       72.47803
O         51.56954       52.71290       71.15991
H         49.51903       52.21967       79.03204
H         49.04861       51.06339       76.48594
H         51.24715       53.06440       77.30048
H         49.55656       53.52021       76.90461
H         48.64020       52.48385       74.58589
H         52.80962       53.11570       75.50342
H         49.17692       52.44690       72.18601
H         53.33816       53.06663       73.10155
H         52.47177       52.80308       70.82210
N         52.17935       50.38375       77.60518
C         53.30763       49.47457       77.41491
C         52.83816       48.02702       77.39479
O         53.11305       47.32857       76.42859
C         54.33712       49.72385       78.54424
C         55.53631       48.76574       78.54062
C         56.49054       49.12456       79.64609
O         57.04774       50.21112       79.64934
O         56.73350       48.25051       80.64170
H         52.20124       51.03604       78.40290
H         53.80256       49.69499       76.44197
H         53.83344       49.62897       79.52833
H         54.70211       50.77069       78.44463
H         56.07052       48.80988       77.56842
H         55.17577       47.72667       78.70425
N         52.12791       47.51129       78.43388
C         51.70253       46.11050       78.50046
C         50.68736       45.73276       77.42605
O         50.42289       44.54768       77.27712
C         51.09613       45.82016       79.88523
C         52.14522       45.98622       80.99774
C         51.55837       45.93285       82.37595
O         52.37290       46.06457       83.43422
O         50.36062       45.79465       82.55713
H         51.91448       48.14328       79.21912
H         52.60144       45.46892       78.35939
H         50.69626       44.78315       79.93806
H         50.25277       46.52598       80.03638
H         52.66376       46.95970       80.91770
H         52.90713       45.18895       80.88612
N         50.06460       46.66975       76.65915
C         49.11374       46.36153       75.61141
H         48.13457       46.82361       75.85672
H         49.47892       46.78904       74.65337
H         48.96943       45.27003       75.47508
H         50.24960       47.65898       76.82910
Ca        50.84489       46.62179       86.02174
O         52.43041       49.17344       84.43628
H         52.56447       48.86070       85.36477
H         53.22367       48.84374       83.94306

Ca 1.0



