%chk=holoCaM.loop1.water2.frame187.chk
%nprocshared=20
%mem=10GB
%nosave
#b3lyp/svp scf=(tight,noincore,xqc) Test 
#IOP(5/87=12) Density=Current Pop=(MK,readradii) iop(6/33=2) iop(6/42=6)

holoCaM.loop1.water2.frame187 

   0  1 
C         35.96273       92.56973       89.74398
C         37.02623       93.51235       90.21583
O         36.98964       93.89834       91.37591
H         34.96920       93.05257       89.84857
H         36.11563       92.28340       88.68300
H         35.98810       91.65018       90.36683
N         38.02881       93.91231       89.38154
C         39.10519       94.77654       89.84127
C         38.55543       96.14885       90.20341
O         38.07567       96.85141       89.32391
C         40.21110       94.88476       88.77276
C         41.46590       95.50158       89.31412
O         41.54664       95.85757       90.60956
O         42.44939       95.58077       88.60155
H         38.05142       93.54614       88.41702
H         39.54809       94.27553       90.73004
H         39.84740       95.44546       87.88457
H         40.48825       93.85736       88.44675
N         38.53004       96.55974       91.50164
C         37.88383       97.79782       91.92601
C         38.64133       99.05568       91.55200
O         37.98763      100.08249       91.42655
C         37.63280       97.79989       93.44525
C         36.55566       96.77342       93.82188
C         36.24871       96.81163       95.32019
C         35.02538       95.94286       95.63891
N         34.71605       95.97779       97.06669
H         38.88486       95.91358       92.22138
H         36.88495       97.85900       91.43521
H         37.24620       98.79964       93.74538
H         38.58407       97.61501       93.99280
H         36.86238       95.74504       93.53287
H         35.62999       97.03700       93.26311
H         36.02047       97.85661       95.62476
H         37.13730       96.45833       95.88829
H         35.21057       94.89210       95.32419
H         34.14957       96.33025       95.06979
H         35.50619       95.56449       97.61260
H         34.54847       96.96314       97.37584
H         33.85020       95.41839       97.24132
N         39.99928       99.08939       91.42499
C         40.72512      100.32997       91.14028
C         41.36376      100.32349       89.76059
O         41.94481      101.33341       89.38616
C         41.72067      100.64936       92.27884
C         42.86466       99.68635       92.44236
O         43.01989       98.75042       91.67811
O         43.74757       99.87807       93.44058
H         40.53267       98.21634       91.54585
H         40.01715      101.18646       91.11881
H         41.15042      100.68139       93.23293
H         42.15562      101.65808       92.11002
N         41.24139       99.25757       88.91877
C         41.70028       99.27781       87.54461
C         43.19186       99.43675       87.42263
O         43.63208      100.36932       86.76607
H         40.74512       98.40894       89.22416
H         41.18019      100.09578       86.99862
H         41.42156       98.31781       87.05761
N         44.02761       98.51916       87.98237
C         45.47206       98.51658       87.76593
C         45.91037       97.29161       86.95998
O         47.08603       97.21130       86.62711
C         46.22361       98.66218       89.11028
C         46.06541       97.51973       90.07783
O         45.42187       96.52892       89.78605
O         46.66010       97.58593       91.28368
H         43.61104       97.76637       88.54501
H         45.75809       99.39871       87.15314
H         45.86472       99.58931       89.60787
H         47.30953       98.78010       88.90787
N         45.02741       96.31402       86.58540
C         45.36012       95.18324       85.73763
C         45.24276       93.84030       86.44038
O         45.35731       92.83622       85.76027
H         44.04359       96.36864       86.87581
H         46.39256       95.25776       85.33224
H         44.66268       95.20161       84.87175
N         45.10905       93.74265       87.80087
C         45.16153       92.45982       88.51819
C         44.10138       92.37702       89.61588
O         43.41021       93.34163       89.87045
C         46.58694       92.23542       89.11472
C         47.65544       92.16240       88.02156
O         46.96477       93.19567       90.07225
H         45.09227       94.60429       88.34963
H         44.96090       91.62816       87.80993
H         46.59148       91.25183       89.62842
H         46.49168       94.04695       89.90407
H         47.73078       93.12187       87.46893
H         48.64422       91.94400       88.47675
H         47.41133       91.34681       87.30744
N         43.93438       91.20601       90.30825
C         42.96021       91.02297       91.38424
C         43.69642       90.63280       92.65960
O         44.30476       89.57504       92.69985
C         41.91204       89.94520       90.94922
C         40.99938       90.54402       89.84461
C         41.06804       89.42839       92.13287
C         40.01669       89.54470       89.23015
H         44.51446       90.39674       90.05309
H         42.41279       91.96372       91.59120
H         42.46350       89.06707       90.54417
H         41.62841       90.93117       89.01558
H         40.42173       91.39790       90.26554
H         41.71637       88.95344       92.89432
H         40.48872       90.24787       92.59868
H         40.37426       88.62575       91.81534
H         40.56892       88.69823       88.77091
H         39.29756       89.15634       89.97859
H         39.42359       90.05411       88.44163
N         43.66466       91.45585       93.75483
C         44.27023       91.08684       95.03646
C         43.45194       89.98964       95.71349
O         42.39243       89.63288       95.21929
C         44.37732       92.31181       95.99276
C         45.24822       93.42658       95.41660
O         43.10304       92.82332       96.27189
H         43.19620       92.36802       93.67086
H         45.30395       90.72019       94.84946
H         44.85816       91.97057       96.93732
H         43.19164       93.41228       97.06645
H         44.76096       93.85834       94.52395
H         45.36034       94.23986       96.16422
H         46.25796       93.04356       95.15869
N         43.87829       89.42613       96.87942
C         43.09702       88.43822       97.62401
C         41.78179       89.04793       98.08408
O         40.75657       88.38909       97.99277
C         43.89305       87.91342       98.84194
C         43.13232       86.79091       99.56627
O         45.12420       87.40589       98.39559
H         44.78972       89.72278       97.26010
H         42.89721       87.56143       96.96626
H         44.06724       88.76303       99.54414
H         45.73339       87.39844       99.17951
H         43.72950       86.41986      100.42485
H         42.15822       87.15084       99.95773
H         42.94766       85.94220       98.87185
N         41.74883       90.31476       98.58669
C         40.52288       90.98778       99.01049
C         39.54435       91.09539       97.84974
O         38.41487       90.64508       97.98227
C         40.83676       92.39270       99.58173
C         41.70274       92.30389      100.85331
C         41.96394       93.68546      101.46946
C         42.87744       93.62167      102.70944
N         42.29262       92.84227      103.80354
H         42.63979       90.82999       98.64122
H         40.04192       90.40217       99.82604
H         39.87739       92.88831       99.85028
H         41.34806       93.01783       98.81678
H         42.68163       91.83577      100.62068
H         41.16798       91.66717      101.58776
H         40.99876       94.16335      101.74524
H         42.46616       94.32662      100.71202
H         43.05111       94.66163      103.06450
H         43.86393       93.18887      102.43040
H         41.35199       93.22221      104.05713
H         42.21440       91.83403      103.54226
H         42.91894       92.90675      104.63826
N         39.92499       91.65958       96.66845
C         39.04377       91.78976       95.50549
C         38.57566       90.44243       94.95892
O         37.67348       90.43829       94.13277
C         39.76433       92.55285       94.37309
C         40.08992       94.00748       94.75243
C         40.90706       94.69548       93.69702
O         41.31712       94.03323       92.59960
O         41.22116       95.86532       93.84374
H         40.88697       92.00850       96.60389
H         38.14174       92.36185       95.81738
H         39.12861       92.57536       93.45895
H         40.70334       92.00602       94.13428
H         40.67125       94.05117       95.69480
H         39.13707       94.56105       94.89689
N         39.14317       89.26810       95.35158
C         38.70844       87.96252       94.90189
H         37.83906       88.01683       94.21521
H         39.54683       87.45403       94.38186
H         38.41844       87.35526       95.78612
H         39.93734       89.28561       95.99259
Ca        43.50903       96.04811       91.69087
O         44.23423       96.64886       94.60529
H         44.60182       97.26428       93.92279
H         44.93895       96.60294       95.29849
O         45.78451       94.25610       92.35115
H         45.94183       93.28576       92.47608
H         46.50849       94.69547       92.86358

Ca 1.0



