%chk=holoCaM.loop2.water1.frame59.chk
%nprocshared=20
%mem=10GB
%nosave
#b3lyp/svp scf=(tight,noincore,xqc) Test 
#IOP(5/87=12) Density=Current Pop=(MK,readradii) iop(6/33=2) iop(6/42=6)

holoCaM.loop2.water1.frame59 

   -2  1 
C         73.41420       33.47641       14.31143
C         72.99997       34.90070       14.07700
O         72.08569       35.14852       13.30571
H         74.29151       33.41632       14.99385
H         72.57303       32.94078       14.79983
H         73.67525       32.98063       13.35686
N         73.59474       35.88698       14.78879
C         73.15357       37.27087       14.79142
C         73.49733       38.04921       13.51872
O         74.63595       38.01482       13.07409
C         73.80047       37.95287       16.00258
C         73.35632       39.34516       16.10843
O         74.17027       40.24529       15.98233
O         72.05162       39.59894       16.29982
H         74.32225       35.61095       15.46877
H         72.05614       37.29780       14.96532
H         74.90482       37.92975       15.90592
H         73.49471       37.44326       16.94103
N         72.55709       38.87781       12.96900
C         72.79383       39.82866       11.88759
C         72.39235       41.27606       12.26291
O         72.53124       42.13092       11.39856
C         72.00978       39.36297       10.65468
H         71.61194       38.85700       13.35922
H         73.86979       39.84093       11.60553
H         72.35963       38.35174       10.35236
H         70.92145       39.31306       10.87168
H         72.17673       40.04906        9.79654
N         71.86615       41.63268       13.48547
C         71.42371       43.00369       13.81693
C         72.02254       43.59406       15.12436
O         71.97838       44.80547       15.28482
C         69.87387       43.07406       13.79179
C         69.21794       42.03159       14.64331
O         69.47713       41.96816       15.94295
O         68.51007       41.17613       14.14042
H         71.70457       40.89887       14.18162
H         71.76155       43.69412       13.01483
H         69.54200       42.87771       12.75010
H         69.52996       44.08528       14.08885
N         72.60925       42.81593       16.07760
C         73.29090       43.27604       17.29223
C         72.38186       43.50829       18.49582
O         72.88632       43.87716       19.54726
H         72.59364       41.82497       15.91713
H         73.89986       44.17809       17.06848
H         74.01229       42.48501       17.59841
N         71.03643       43.33115       18.40998
C         70.06348       43.66787       19.45057
C         70.04793       42.73996       20.67562
O         69.23218       42.96826       21.55852
C         68.66156       43.80614       18.79783
C         68.01688       42.54147       18.30252
N         66.84542       42.60653       17.63478
O         68.54235       41.45949       18.48378
H         70.67395       43.05716       17.50190
H         70.30424       44.69211       19.80713
H         68.76887       44.48872       17.92502
H         67.95864       44.27434       19.51526
H         66.39880       43.51216       17.43519
H         66.39138       41.74914       17.30414
N         70.93345       41.71333       20.82973
C         71.00866       40.87722       22.02544
C         69.94612       39.79313       22.13901
O         69.98913       39.05379       23.11203
H         71.65863       41.57550       20.11854
H         71.01586       41.52542       22.92793
H         71.97678       40.33176       21.99966
N         68.99307       39.60882       21.18512
C         68.02550       38.51294       21.17803
C         68.08060       37.75667       19.87025
O         68.30760       38.35432       18.82669
C         66.56613       39.01300       21.37260
C         66.34608       39.50720       22.79445
O         66.17549       40.03448       20.48096
H         68.96930       40.26082       20.40291
H         68.23859       37.78804       21.99653
H         65.88486       38.14322       21.22702
H         66.81193       40.10174       19.72976
H         65.28406       39.81076       22.90956
H         66.55519       38.68956       23.51759
H         67.00178       40.37462       23.01188
N         67.76824       36.43362       19.84451
C         67.63024       35.71031       18.59231
C         66.30988       36.12433       17.96511
O         65.27210       35.91627       18.58116
C         67.70077       34.16674       18.79161
C         68.95701       33.77170       19.61102
C         67.69004       33.46011       17.42334
C         69.09671       32.26125       19.80180
H         67.56368       35.95457       20.73377
H         68.49117       35.96987       17.93877
H         66.81079       33.82808       19.36866
H         68.85475       34.20897       20.62319
H         69.89267       34.17255       19.16087
H         67.71572       32.35829       17.53223
H         66.75703       33.68941       16.88338
H         68.55938       33.77925       16.81102
H         69.51666       31.79558       18.88517
H         69.78641       32.05312       20.64541
H         68.11059       31.80308       20.02949
N         66.27403       36.70146       16.73362
C         65.02861       36.98167       16.03015
C         64.63590       35.75121       15.25320
O         65.38010       34.79292       15.27423
C         65.17758       38.20061       15.10281
C         65.63432       39.41465       15.85207
O         66.85928       39.44238       16.41227
O         64.90844       40.39160       15.93126
H         67.15288       36.79707       16.21606
H         64.21725       37.18514       16.76431
H         64.19437       38.41351       14.63000
H         65.91447       37.99607       14.29748
N         63.45237       35.65960       14.59922
C         63.02868       34.41688       13.96625
C         63.90511       34.02697       12.77166
O         64.31043       32.87300       12.74006
C         61.53007       34.46521       13.63527
C         61.01056       33.13535       13.14913
C         61.05747       31.98856       13.96828
C         60.45941       33.03750       11.86443
C         60.56090       30.76866       13.49893
C         59.96493       31.81778       11.40048
C         60.01479       30.68414       12.21566
H         62.80314       36.45956       14.63348
H         63.12356       33.61186       14.73058
H         61.32854       35.25723       12.89247
H         60.97068       34.73063       14.55926
H         61.47131       32.03300       14.96861
H         60.41340       33.90761       11.22226
H         60.59682       29.88938       14.13019
H         59.54178       31.75526       10.40757
H         59.62842       29.74138       11.85245
N         64.26246       34.88031       11.75350
C         65.13820       34.47889       10.65317
C         66.54417       34.10469       11.13020
O         67.31026       33.54179       10.36127
C         65.22344       35.72052        9.75271
C         63.98568       36.51137       10.13568
C         63.86506       36.26067       11.63167
H         64.63628       33.62997       10.13632
H         66.09138       36.34494       10.05988
H         65.31055       35.49315        8.66659
H         64.01508       37.58564        9.85191
H         63.11148       36.02709        9.64987
H         64.58071       36.87715       12.22000
H         62.82814       36.47016       11.94342
N         66.95972       34.45532       12.38230
C         68.23014       34.07454       12.97996
C         68.09939       32.66934       13.55064
O         69.02174       31.87980       13.41555
C         68.63030       35.08848       14.07652
C         68.79856       36.51584       13.51938
C         69.28277       37.48181       14.55751
O         69.54927       37.09152       15.81993
O         69.44852       38.64492       14.24380
H         66.32529       35.00060       12.97698
H         69.04850       34.10256       12.22632
H         69.59758       34.76999       14.52047
H         67.86838       35.10445       14.87793
H         67.83058       36.89677       13.12628
H         69.53871       36.51344       12.69074
N         66.94286       32.28330       14.16323
C         66.64880       30.94938       14.63412
H         65.70310       30.60590       14.15747
H         67.44938       30.22817       14.38068
H         66.48909       30.97174       15.73183
H         66.18835       32.95750       14.26934
Ca        69.86654       39.91092       16.63006
O         71.10220       39.43846       18.97273
H         72.06931       39.61272       19.07846
H         71.03702       38.46763       18.80079

Ca 1.0



