%chk=holoCaM.loop4.water3.frame127.chk
%nprocshared=20
%mem=10GB
%nosave
#b3lyp/svp scf=(tight,noincore,xqc) Test 
#IOP(5/87=12) Density=Current Pop=(MK,readradii) iop(6/33=2) iop(6/42=6)

holoCaM.loop4.water3.frame127 

   -3  1 
C        -10.55067      104.17102        6.25263
C        -10.96920      102.73526        6.36538
O        -10.14227      101.86240        6.14668
H         -9.48187      104.24740        5.95474
H        -11.17700      104.70147        5.50889
H        -10.66433      104.65814        7.24572
N        -12.23474      102.41976        6.76793
C        -12.64711      101.06081        7.09497
C        -13.92801      100.62910        6.37543
O        -14.94332      101.30095        6.48602
C        -12.83758      100.99420        8.61628
C        -13.13248       99.60182        9.06758
O        -12.33258       98.70891        8.83936
O        -14.27591       99.33410        9.72576
H        -12.89448      103.18846        6.96395
H        -11.83254      100.34616        6.84865
H        -13.65447      101.67907        8.93054
H        -11.89738      101.31790        9.11493
N        -13.94588       99.44980        5.68599
C        -15.09822       98.83908        5.03299
C        -15.44263       97.48139        5.68616
O        -16.52727       96.98365        5.42057
C        -14.75584       98.62102        3.51167
C        -14.30673       99.94820        2.84183
C        -15.91759       97.97710        2.72087
C        -13.78902       99.77162        1.40823
H        -13.08007       98.93052        5.62411
H        -15.97845       99.51018        5.14077
H        -13.89097       97.91947        3.46463
H        -13.46043      100.37888        3.41755
H        -15.14119      100.68145        2.84772
H        -16.17830       96.97582        3.11038
H        -16.81535       98.62929        2.74119
H        -15.63371       97.78156        1.66914
H        -13.41724      100.74505        1.02639
H        -12.95053       99.04228        1.38633
H        -14.58624       99.43395        0.71693
N        -14.55980       96.78798        6.47903
C        -14.78343       95.39897        6.90727
C        -14.78415       95.17168        8.41215
O        -15.18158       94.09388        8.83410
C        -13.72650       94.48341        6.24817
C        -12.27129       94.78346        6.58509
O        -11.90098       95.79041        7.41301
O        -11.40525       94.09888        6.06820
H        -13.65609       97.21087        6.70471
H        -15.78359       95.06306        6.55581
H        -13.84267       94.57050        5.14593
H        -13.94209       93.42763        6.52459
N        -14.32414       96.10574        9.27918
C        -14.30860       95.94422       10.72030
C        -13.53980       94.72825       11.18925
O        -14.10905       93.94830       11.94013
H        -13.96157       96.98265        8.90568
H        -15.35414       95.88937       11.09554
H        -13.83567       96.84412       11.16989
N        -12.24032       94.51433       10.82465
C        -11.43144       93.43152       11.39475
C        -10.22557       93.96339       12.16934
O         -9.55691       93.16539       12.81153
C        -11.04772       92.37496       10.33094
C        -10.14328       92.83513        9.22389
O         -9.68527       94.09126        9.17888
O         -9.80665       92.04804        8.35435
H        -11.81199       95.16039       10.14538
H        -12.03631       92.87995       12.14627
H        -11.98314       91.98821        9.87309
H        -10.53999       91.52821       10.84228
N         -9.89789       95.29024       12.17987
C         -8.83181       95.86049       12.98461
C         -7.70482       96.43420       12.15503
O         -6.84533       97.07449       12.74440
H        -10.43409       95.95888       11.61643
H         -8.38970       95.11795       13.68319
H         -9.27913       96.67057       13.60097
N         -7.58652       96.19362       10.81262
C         -6.45106       96.65172       10.02375
C         -6.92234       97.41409        8.75263
O         -7.38651       96.52276        7.77012
C         -5.55072       95.44481        9.65695
C         -4.97972       94.74875       10.90373
C         -4.07028       93.60734       10.52760
N         -4.54353       92.53737        9.84648
O         -2.89236       93.64481       10.85078
H         -8.27619       95.59930       10.34433
H         -5.83839       97.35953       10.62586
H         -4.69469       95.78823        9.03881
H         -6.13752       94.71444        9.05932
H         -5.79933       94.35212       11.53994
H         -4.40499       95.49451       11.49683
H         -5.53545       92.47912        9.57461
H         -3.91607       91.75907        9.59516
N         -5.82673       98.26771        8.24552
C         -5.85965       98.70141        6.83686
C         -5.18047       97.67740        5.92983
O         -4.03325       97.33526        6.18467
C         -5.12350      100.06909        6.72733
C         -4.99602      100.54963        5.26929
C         -5.85953      101.14618        7.54132
H         -4.86726       97.95386        8.51971
H         -6.89968       98.88062        6.51108
H         -4.09416       99.96022        7.13712
H         -4.39712       99.83464        4.66767
H         -5.99560      100.66548        4.80048
H         -4.46539      101.52475        5.23274
H         -6.88400      101.30369        7.13925
H         -5.93569      100.85616        8.60986
H         -5.31037      102.11031        7.48792
N         -5.79482       97.23999        4.78873
C         -5.11970       96.44713        3.76506
C         -4.95663       97.29321        2.50601
O         -5.40540       98.43263        2.48636
C         -5.81859       95.08707        3.49389
C         -7.14340       95.13615        2.76450
N         -8.25712       95.62362        3.34862
O         -7.21704       94.67628        1.63451
H         -6.73444       97.58403        4.57258
H         -4.09519       96.19272        4.11244
H         -5.93693       94.52292        4.44405
H         -5.12574       94.49283        2.85996
H         -8.23566       95.96010        4.31564
H         -9.15522       95.62169        2.84232
N         -4.28642       96.81225        1.42262
C         -4.01708       97.61846        0.23345
C         -5.27482       98.17643       -0.41730
O         -5.21319       99.27032       -0.96067
C         -3.18151       96.86973       -0.82979
C         -3.94021       95.75377       -1.51901
C         -4.48762       95.97700       -2.79515
C         -4.11856       94.49745       -0.91284
C         -5.21204       94.97390       -3.44193
C         -4.83729       93.49268       -1.56575
C         -5.39017       93.72716       -2.82790
O         -6.08907       92.75042       -3.43932
H         -3.90671       95.86122        1.47947
H         -3.40078       98.48433        0.56683
H         -2.22112       96.49425       -0.41582
H         -2.91006       97.63438       -1.59188
H         -4.36974       96.93637       -3.28395
H         -3.69638       94.27629        0.05506
H         -5.63708       95.16946       -4.41801
H         -4.96449       92.52968       -1.08771
H         -6.49236       92.87609       -4.31000
N         -6.43433       97.46211       -0.44575
C         -7.66042       97.96843       -1.05635
C         -8.12191       99.21580       -0.32964
O         -8.32973      100.23946       -0.96666
C         -8.78828       96.91216       -1.01961
C         -8.44898       95.66974       -1.85876
C         -9.58376       94.68680       -1.85482
O        -10.67527       95.00322       -2.30141
O         -9.39725       93.44330       -1.37283
H         -6.44173       96.53064       -0.00849
H         -7.47464       98.21303       -2.12711
H         -9.70859       97.37355       -1.44438
H         -9.00283       96.61005        0.02943
H         -7.54545       95.17215       -1.45192
H         -8.24299       95.96918       -2.90929
N         -8.29363       99.19286        1.02209
C         -8.77969      100.33685        1.79317
C         -7.82256      101.52628        1.74645
O         -8.20595      102.59522        2.20228
C         -8.98353       99.94461        3.27433
C         -9.96889       98.77924        3.47054
C         -9.97301       98.32693        4.90076
O         -8.83905       97.95848        5.50129
O        -11.00397       98.24579        5.52613
H         -8.07733       98.31097        1.50751
H         -9.75816      100.64679        1.36182
H         -9.35402      100.81958        3.85066
H         -7.99019       99.65268        3.68119
H         -9.66240       97.90530        2.87321
H        -10.98885       99.07241        3.13843
N         -6.55787      101.42028        1.24884
C         -5.64330      102.53909        1.20441
H         -4.67092      102.21275        0.77574
H         -6.06006      103.34443        0.56362
H         -5.46597      102.92675        2.22963
H         -6.21030      100.51847        0.90816
Ca        -9.70237       96.37453        7.75436
O         -8.48872       94.13580        6.22453
H         -7.63652       93.65978        6.38346
H         -8.84402       93.74163        5.38895
O         -9.26393       99.75226        8.33924
H         -8.67548      100.40292        8.79737
H         -9.02782       99.83521        7.38295
O        -10.25799       98.26665       10.61882
H        -10.99995       98.46503       11.24402
H         -9.46936       98.71358       11.01458

Ca 1.0



