%chk=holoCaM-CaMKII.loop2.water2.frame335.chk
%nprocshared=20
%mem=10GB
%nosave
#b3lyp/svp scf=(tight,noincore,xqc) Test 
#IOP(5/87=12) Density=Current Pop=(MK,readradii) iop(6/33=2) iop(6/42=6)

holoCaM-CaMKII.loop2.water2.frame335 

   -2  1 
C         52.72543       71.18575       59.49186
C         53.13861       72.51502       58.91510
O         53.23385       72.63603       57.70351
H         51.72234       70.90763       59.10185
H         53.45499       70.39854       59.21480
H         52.65498       71.22611       60.60087
N         53.35695       73.57555       59.73817
C         53.62181       74.93325       59.27064
C         54.98547       75.09018       58.60187
O         55.98344       74.76136       59.22865
C         53.58024       75.89586       60.48042
C         53.57195       77.34129       60.07869
O         53.44241       77.66236       58.90963
O         53.64770       78.29501       61.02473
H         53.24086       73.42324       60.75258
H         52.80195       75.21922       58.57585
H         54.45635       75.69476       61.13456
H         52.66325       75.72793       61.08191
N         55.10467       75.67015       57.36724
C         56.39272       75.98003       56.74434
C         56.57395       77.46743       56.38454
O         57.67090       77.80921       55.96465
C         56.55344       75.12574       55.48361
H         54.24820       75.91089       56.85594
H         57.21945       75.71422       57.43788
H         57.54619       75.29984       55.01567
H         56.47842       74.04854       55.74497
H         55.75964       75.36951       54.74465
N         55.56446       78.39173       56.45549
C         55.69874       79.78483       55.99415
C         55.19832       80.84096       57.00064
O         55.26110       82.01826       56.67303
C         54.99012       79.93985       54.63248
C         53.60793       79.38913       54.66369
O         52.73913       79.80185       55.59250
O         53.28615       78.49869       53.89196
H         54.62830       78.08127       56.74121
H         56.76358       80.03761       55.80036
H         55.55965       79.38019       53.85797
H         54.96782       81.00721       54.32489
N         54.75489       80.52238       58.24915
C         54.42984       81.50878       59.27720
C         53.13812       82.30798       59.12734
O         52.88842       83.10872       60.01810
H         54.78034       79.54287       58.54208
H         55.28432       82.21335       59.37568
H         54.33683       80.97101       60.24540
N         52.26090       82.17378       58.08850
C         51.02512       82.97041       57.99841
C         49.94006       82.57640       59.02608
O         48.87587       83.17949       59.00062
C         50.45876       82.96020       56.55497
C         49.92451       81.64039       56.08140
N         49.39628       81.52593       54.84167
O         49.95543       80.67112       56.81536
H         52.50214       81.53731       57.31990
H         51.29452       84.03594       58.17307
H         51.25694       83.29181       55.85579
H         49.62691       83.69549       56.49295
H         49.36062       82.33676       54.20705
H         49.01717       80.62574       54.51617
N         50.13815       81.60837       59.97089
C         49.16870       81.25670       61.00565
C         48.02611       80.34857       60.56569
O         47.23900       79.98141       61.42619
H         51.05620       81.15811       60.03753
H         48.77898       82.18083       61.48626
H         49.70843       80.68499       61.79187
N         47.86836       79.92779       59.27793
C         46.80379       79.02724       58.83049
C         47.36063       77.81751       58.08698
O         48.36544       77.93724       57.40271
C         45.83145       79.78033       57.89459
C         45.06849       80.86889       58.65073
O         46.52193       80.36966       56.82089
H         48.51472       80.27774       58.57053
H         46.20549       78.65287       59.69104
H         45.05955       79.07160       57.50985
H         46.68557       79.65724       56.14983
H         45.76446       81.62750       59.06616
H         44.35820       81.37502       57.96364
H         44.48651       80.41738       59.48336
N         46.68741       76.62949       58.11631
C         47.05423       75.46579       57.30467
C         46.78272       75.77265       55.83388
O         45.68509       76.19976       55.50889
C         46.26611       74.18594       57.74556
C         46.56676       73.84816       59.23377
C         46.64362       72.98661       56.84415
C         45.78951       72.64040       59.76735
H         45.85043       76.56623       58.71482
H         48.12679       75.22429       57.45372
H         45.17577       74.37679       57.63231
H         46.28812       74.70890       59.87457
H         47.65466       73.66072       59.36935
H         46.06442       72.07839       57.09899
H         46.39847       73.19723       55.78744
H         47.72880       72.75823       56.92493
H         46.01183       72.50712       60.84685
H         44.69720       72.79911       59.64573
H         46.08643       71.70206       59.25731
N         47.72076       75.48429       54.88610
C         47.51293       75.66110       53.44391
C         47.33544       74.30805       52.80373
O         47.38845       73.31496       53.50033
C         48.72160       76.37173       52.82410
C         48.90338       77.72304       53.41546
O         48.99320       77.82982       54.74678
O         49.05809       78.70371       52.70545
H         48.60171       75.04926       55.19013
H         46.58783       76.24259       53.24312
H         48.63451       76.46175       51.72008
H         49.63519       75.77532       53.04739
N         47.05646       74.19060       51.47376
C         46.75297       72.88959       50.89780
C         47.94089       71.92457       50.98055
O         47.74659       70.87574       51.58701
C         46.16451       73.00978       49.47573
C         45.76115       71.64277       48.98824
C         44.72258       70.94304       49.62861
C         46.44212       71.04045       47.91937
C         44.37782       69.65755       49.21043
C         46.09683       69.75055       47.50746
C         45.06693       69.05944       48.15303
H         46.97692       75.03673       50.89383
H         45.92735       72.46492       51.51108
H         46.87672       73.47325       48.77954
H         45.27154       73.67223       49.48241
H         44.18271       71.39002       50.45464
H         47.25190       71.55925       47.42094
H         43.58069       69.12458       49.71212
H         46.63347       69.28414       46.69247
H         44.80390       68.05952       47.83630
N         49.18274       72.15340       50.43908
C         50.30563       71.22468       50.55000
C         50.55499       70.74114       51.96598
O         50.72849       69.55133       52.17669
C         51.51168       72.05125       50.08446
C         50.88804       72.93600       49.04047
C         49.58894       73.35402       49.72430
H         50.13269       70.36493       49.86283
H         51.85368       72.73309       50.89704
H         52.37978       71.44494       49.74806
H         51.51887       73.77890       48.68711
H         50.63651       72.28830       48.16798
H         49.73673       74.17457       50.45965
H         48.91351       73.67165       48.91958
N         50.56156       71.64184       52.98700
C         50.82301       71.30389       54.38296
C         49.85083       70.23934       54.86006
O         50.29245       69.19356       55.31717
C         50.72279       72.57237       55.26429
C         51.76456       73.64332       54.86804
C         51.63508       74.91359       55.65908
O         52.34605       75.86378       55.37934
O         50.73117       75.03540       56.64901
H         50.34365       72.61770       52.74549
H         51.85815       70.90585       54.47826
H         50.88216       72.29478       56.32913
H         49.70226       72.99755       55.16507
H         51.64433       73.92992       53.80559
H         52.79045       73.23594       54.99870
N         48.50926       70.42034       54.74427
C         47.54589       69.41665       55.13435
H         46.51834       69.77479       54.90748
H         47.72410       68.47981       54.56416
H         47.62416       69.21665       56.22278
H         48.15656       71.28998       54.33674
Ca        50.87966       78.63720       55.49213
O         50.65512       78.59944       59.50078
H         49.92925       78.26641       60.08409
H         51.32761       78.94201       60.13833
O         50.45386       75.72357       59.56965
H         49.56608       75.69050       59.13943
H         50.32619       75.26530       60.43663

Ca 1.0



