%chk=holoCaM-CaMKII.loop2.water2.frame284.chk
%nprocshared=20
%mem=10GB
%nosave
#b3lyp/svp scf=(tight,noincore,xqc) Test 
#IOP(5/87=12) Density=Current Pop=(MK,readradii) iop(6/33=2) iop(6/42=6)

holoCaM-CaMKII.loop2.water2.frame284 

   -2  1 
C         31.27643       39.34064       61.65774
C         31.72038       40.73678       61.31710
O         31.72129       41.60201       62.17971
H         30.40454       39.05772       61.03063
H         32.10577       38.62855       61.45469
H         30.99362       39.25552       62.72800
N         32.14033       41.01114       60.05426
C         32.65124       42.30818       59.61930
C         31.58245       43.39750       59.64916
O         30.53875       43.22462       59.03446
C         33.18938       42.18192       58.18342
C         33.68426       43.50057       57.66739
O         34.76561       44.13598       58.17884
O         33.06180       44.03458       56.76378
H         32.13326       40.23240       59.37572
H         33.50716       42.59502       60.25741
H         32.35200       41.83593       57.53451
H         33.99857       41.42906       58.12357
N         31.83286       44.58836       60.27233
C         30.92918       45.73540       60.23003
C         31.57433       46.98325       59.61203
O         30.88448       47.99126       59.53628
C         30.49198       46.06537       61.66255
H         32.71850       44.69841       60.78622
H         30.02036       45.49598       59.63635
H         29.99391       45.18766       62.12457
H         31.37465       46.34166       62.28086
H         29.77630       46.91586       61.67077
N         32.88535       47.02814       59.21453
C         33.56256       48.27569       58.84048
C         34.28998       48.24882       57.49100
O         34.82612       49.28432       57.11885
C         34.51044       48.67655       59.99303
C         35.43229       47.56945       60.42618
O         35.36479       47.09192       61.68359
O         36.22598       47.08240       59.64549
H         33.46563       46.18361       59.29594
H         32.82737       49.10500       58.74726
H         33.88266       48.94242       60.87091
H         35.09667       49.57922       59.71599
N         34.32594       47.15396       56.68067
C         34.91881       47.16885       55.34475
C         36.43187       47.34261       55.28090
O         36.94157       47.41214       54.17093
H         33.84488       46.30092       56.97785
H         34.43845       47.98106       54.75656
H         34.68435       46.20721       54.83759
N         37.22346       47.40692       56.39139
C         38.68070       47.57547       56.34162
C         39.44920       46.35947       55.78910
O         40.67229       46.39997       55.79732
C         39.23568       47.97391       57.73477
C         39.10799       46.94463       58.82842
N         39.67677       47.17811       60.03118
O         38.50130       45.90322       58.64422
H         36.77231       47.37977       57.31033
H         38.90692       48.44946       55.69132
H         38.73554       48.90644       58.07647
H         40.31727       48.20159       57.61693
H         40.19350       48.05090       60.21104
H         39.61851       46.47444       60.77735
N         38.82336       45.26409       55.26872
C         39.52204       44.11059       54.71998
C         40.08375       43.15313       55.75798
O         40.65054       42.15199       55.34353
H         37.80656       45.26253       55.17282
H         40.31694       44.45141       54.02062
H         38.79450       43.51477       54.12709
N         39.96558       43.36387       57.10316
C         40.48887       42.44953       58.11395
C         39.35990       41.97239       59.08147
O         38.85711       43.00428       59.88905
C         41.69055       43.10957       58.84947
C         42.86826       43.32576       57.89478
O         41.32072       44.34549       59.40622
H         39.51123       44.21574       57.43247
H         40.87414       41.52605       57.62684
H         42.09035       42.43715       59.64079
H         41.11249       44.18884       60.36389
H         43.19486       42.35239       57.46692
H         42.59250       44.00896       57.06492
H         43.72643       43.76461       58.44654
N         39.81526       40.81181       59.87751
C         39.16943       40.54632       61.17566
C         39.69590       41.51703       62.23912
O         40.90212       41.58702       62.42956
C         39.48911       39.07248       61.59237
C         39.09458       38.07215       60.47146
C         38.78395       38.71105       62.91413
C         39.57441       36.64155       60.73866
H         40.85218       40.72535       59.96367
H         38.06639       40.63647       61.06759
H         40.58938       38.99033       61.74280
H         39.57629       38.37577       59.51811
H         37.99361       38.07928       60.31810
H         39.04855       37.69215       63.25706
H         39.10603       39.39064       63.72029
H         37.68059       38.77879       62.80123
H         39.09592       36.20238       61.63565
H         39.31641       35.99707       59.87237
H         40.67853       36.62772       60.86744
N         38.83718       42.24764       63.00929
C         39.27357       43.08366       64.13102
C         39.21180       42.27715       65.41804
O         38.80706       41.13262       65.38123
C         38.37827       44.33439       64.26354
C         38.41353       45.22175       63.05721
O         38.01721       44.81572       61.97718
O         38.84199       46.49304       63.17699
H         37.83003       42.09771       62.88625
H         40.33041       43.39957       63.98746
H         38.71777       44.93743       65.13193
H         37.32672       44.02861       64.44994
N         39.63262       42.80367       66.60369
C         39.62365       42.02942       67.84195
C         38.21949       41.59409       68.26121
O         38.04980       40.39529       68.45625
C         40.34377       42.78705       68.97858
C         40.47377       41.93911       70.22852
C         41.16183       40.70975       70.19348
C         39.91291       42.37018       71.44308
C         41.27529       39.92742       71.34588
C         40.03504       41.58586       72.59564
C         40.71316       40.36508       72.54637
H         40.01107       43.76119       66.61727
H         40.22825       41.11554       67.65433
H         39.81318       43.73435       69.19935
H         41.36827       43.05293       68.63948
H         41.61081       40.35023       69.27693
H         39.38261       43.31217       71.50031
H         41.80092       38.98158       71.30755
H         39.60322       41.92408       73.52843
H         40.80491       39.75849       73.43823
N         37.15700       42.44626       68.43136
C         35.84687       41.99987       68.88760
C         35.17124       41.08688       67.87864
O         34.34341       40.28290       68.27974
C         35.07808       43.30619       69.11766
C         35.67713       44.22141       68.07244
C         37.16288       43.87460       68.16735
H         35.91707       41.45847       69.85804
H         33.97020       43.21721       69.11522
H         35.39092       43.72200       70.10254
H         35.29372       43.89039       67.08101
H         35.44860       45.30222       68.18709
H         37.62747       44.15168       67.20304
H         37.65116       44.39634       69.01616
N         35.48296       41.14751       66.55517
C         34.90663       40.25058       65.56173
C         35.38828       38.83625       65.82881
O         34.56910       37.94167       65.98695
C         35.29056       40.70871       64.13897
C         34.74673       42.12682       63.85191
C         35.08097       42.63700       62.48240
O         34.72520       43.89035       62.14581
O         35.67399       41.94294       61.67348
H         36.16637       41.85022       66.24379
H         33.79504       40.28752       65.61727
H         34.85727       39.99979       63.39902
H         36.39463       40.69989       64.02833
H         35.17088       42.85231       64.57291
H         33.64255       42.13402       63.96885
N         36.71941       38.57539       65.93425
C         37.25050       37.26500       66.22958
H         38.35882       37.32047       66.30635
H         36.85101       36.90337       67.20062
H         36.98473       36.55545       65.41967
H         37.38741       39.34420       65.83019
Ca        36.65653       43.48053       59.30861
O         36.44789       40.45467       58.68670
H         35.86850       39.89799       58.10899
H         36.01011       40.42513       59.57362
O         36.76875       43.52358       56.45138
H         36.41401       42.60400       56.51766
H         36.04948       44.04309       56.00988

Ca 1.0



