%chk=holoCaM-CaMKII.loop3.water2.frame279.chk
%nprocshared=20
%mem=10GB
%nosave
#b3lyp/svp scf=(tight,noincore,xqc) Test 
#IOP(5/87=12) Density=Current Pop=(MK,readradii) iop(6/33=2) iop(6/42=6)

holoCaM-CaMKII.loop3.water2.frame279 

   0  1 
C         39.07025       17.57466       77.49009
C         39.56786       16.27664       78.05365
O         40.72038       15.93759       77.82519
H         38.00820       17.75403       77.76053
H         39.68229       18.41193       77.88556
H         39.15304       17.55169       76.38348
N         38.75059       15.49295       78.81076
C         39.17889       14.21619       79.37134
C         39.04268       13.12039       78.31787
O         38.58275       13.41625       77.22238
C         38.39266       13.97122       80.68009
C         38.91699       12.82370       81.48514
O         38.09365       11.84799       81.90514
O         40.09503       12.79062       81.79522
H         37.78683       15.81406       78.99492
H         40.25162       14.29647       79.65520
H         37.30787       13.84238       80.47321
H         38.51723       14.87466       81.31763
N         39.43995       11.83648       78.56117
C         39.38565       10.78485       77.55322
C         38.32710        9.76330       77.92931
O         37.42289        9.54507       77.13466
C         40.78576       10.16008       77.37529
C         40.83053        9.22650       76.15589
C         42.21995        8.61163       75.94802
C         42.23292        7.74728       74.67736
N         43.53528        7.11407       74.47689
H         39.81542       11.58657       79.48434
H         39.10051       11.21603       76.56758
H         41.08431        9.61640       78.29655
H         41.52058       10.97834       77.20319
H         40.56220        9.81757       75.25197
H         40.08962        8.40785       76.28065
H         42.47898        7.98668       76.83046
H         42.97961        9.41813       75.84588
H         41.99679        8.38517       73.79565
H         41.45336        6.95726       74.75526
H         43.50458        6.54423       73.60031
H         44.28119        7.84085       74.38229
H         43.75358        6.48278       75.28155
N         38.34563        9.12836       79.13781
C         37.28933        8.21021       79.56012
C         36.11804        8.92878       80.22583
O         35.15509        8.25983       80.57560
C         37.85370        7.06744       80.43745
C         38.42603        7.47320       81.77256
O         38.46920        8.64032       82.12422
O         38.89293        6.51885       82.59913
H         39.08374        9.37580       79.80833
H         36.87400        7.70805       78.65775
H         38.64485        6.53572       79.86620
H         37.03366        6.34273       80.63369
N         36.09742       10.28432       80.39450
C         34.94667       11.00038       80.92383
C         34.60611       10.72179       82.37799
O         33.57003       11.21240       82.80477
H         36.88520       10.85198       80.05742
H         34.06656       10.73960       80.29635
H         35.11513       12.09500       80.82470
N         35.38539        9.96245       83.20673
C         34.97069        9.63551       84.57334
C         34.81281       10.84564       85.50518
O         34.31422       10.64446       86.60388
C         35.90143        8.57571       85.22805
C         37.33278        9.00422       85.45524
N         38.17124        8.21875       86.17034
O         37.74299       10.05745       85.00321
H         36.25667        9.55722       82.84378
H         33.96921        9.15760       84.49207
H         35.91303        7.65039       84.61228
H         35.46717        8.31410       86.21705
H         37.84381        7.32882       86.57316
H         39.14495        8.51215       86.34276
N         35.22309       12.10635       85.17097
C         35.08763       13.25892       86.06254
C         36.43223       13.77345       86.55355
O         36.46244       14.77074       87.26005
H         35.68508       12.26833       84.26460
H         34.48507       13.01117       86.96235
H         34.55370       14.06290       85.51271
N         37.58038       13.11500       86.24669
C         38.92624       13.46592       86.67606
C         39.79121       13.66342       85.43992
O         39.27221       13.57556       84.33617
C         39.45586       12.28384       87.52340
C         38.72338       12.16765       88.83740
C         38.97335       13.10277       89.85555
C         37.80749       11.12767       89.07040
C         38.32567       12.99699       91.08906
C         37.14781       11.03287       90.30153
C         37.40933       11.96590       91.31680
O         36.79025       11.88193       92.51190
H         37.51897       12.27228       85.67123
H         38.94919       14.40260       87.27520
H         40.53549       12.37747       87.75943
H         39.33819       11.35184       86.92678
H         39.68534       13.90374       89.69896
H         37.59504       10.39806       88.29910
H         38.53909       13.71666       91.86965
H         36.43699       10.23304       90.46718
H         36.14864       11.18598       92.71312
N         41.13133       13.88781       85.54231
C         42.01271       13.95279       84.37696
C         43.46575       13.80762       84.80630
O         43.92466       14.54058       85.67209
C         41.76040       15.20256       83.47460
C         42.63430       15.09344       82.19375
C         41.98405       16.52420       84.22654
C         42.36039       16.16974       81.14581
H         41.54833       13.92884       86.48483
H         41.78436       13.06642       83.74989
H         40.69876       15.18613       83.14920
H         42.42608       14.11531       81.70898
H         43.71345       15.12319       82.45619
H         43.04273       16.63895       84.53449
H         41.71031       17.38833       83.58740
H         41.33404       16.56645       85.12544
H         41.29265       16.15540       80.84518
H         42.62843       17.17639       81.52298
H         42.98206       15.96559       80.24819
N         44.24751       12.86289       84.21028
C         45.62865       12.58148       84.57393
C         46.57266       13.01714       83.46464
O         46.11990       13.58327       82.48383
C         45.75386       11.08107       84.89654
O         45.42269       10.29141       83.78315
H         43.84915       12.31387       83.43588
H         45.91795       13.15228       85.48302
H         45.05747       10.82593       85.72388
H         46.77192       10.82850       85.26815
H         46.26740       10.10638       83.29575
N         47.91624       12.82769       83.58302
C         48.89815       13.31592       82.61546
C         48.71014       12.73095       81.22628
O         48.58516       13.49679       80.28100
C         50.31531       13.00365       83.10700
H         48.26239       12.35355       84.43095
H         48.81179       14.42421       82.55042
H         50.46775       11.90782       83.20770
H         51.06552       13.40866       82.39473
H         50.48200       13.47787       84.09752
N         48.69700       11.38296       81.02506
C         48.56830       10.76681       79.70455
C         47.32797       11.25383       78.98565
O         47.42509       11.65146       77.83280
C         48.52109        9.23985       79.83260
H         48.77475       10.76946       81.85103
H         49.46110       11.01848       79.08868
H         47.64450        8.91903       80.43514
H         48.45262        8.77460       78.82505
H         49.44782        8.87097       80.32138
N         46.13201       11.28883       79.63222
C         44.89411       11.75973       79.01785
C         45.06509       13.16733       78.46469
O         44.77704       13.37689       77.29463
C         43.71995       11.69288       80.02223
C         43.45802       10.24447       80.48261
C         42.22499       10.13511       81.32688
O         41.30518        9.41983       80.96961
O         42.12894       10.79821       82.49076
H         46.12070       10.99345       80.61914
H         44.63075       11.09033       78.16771
H         42.80603       12.06877       79.51032
H         43.92233       12.34240       80.90190
H         44.31059        9.85531       81.07498
H         43.33407        9.59766       79.58695
N         45.58720       14.16265       79.23225
C         45.83931       15.50711       78.75317
H         46.93078       15.71173       78.79612
H         45.49736       15.65729       77.70810
H         45.31768       16.23655       79.40578
H         45.86449       13.95058       80.19409
Ca        40.23022       10.62129       83.69944
O         41.94868       10.44416       85.97508
H         42.39271       11.20709       86.42166
H         41.52358        9.93258       86.70847
O         41.39908        7.98412       84.31479
H         41.12749        7.71548       83.40188
H         41.29844        7.16381       84.85897

Ca 1.0



