%chk=holoCaM.loop4.water3.frame218.chk
%nprocshared=20
%mem=10GB
%nosave
#b3lyp/svp scf=(tight,noincore,xqc) Test 
#IOP(5/87=12) Density=Current Pop=(MK,readradii) iop(6/33=2) iop(6/42=6)

holoCaM.loop4.water3.frame218 

   -3  1 
C         45.94401       72.17999       -5.74729
C         46.78987       71.08852       -5.16220
O         46.78333       70.92247       -3.95077
H         44.88459       72.00465       -5.46013
H         46.26963       73.16613       -5.36039
H         46.00179       72.18731       -6.85639
N         47.51412       70.26743       -5.97177
C         48.21446       69.09790       -5.46543
C         49.35511       69.46265       -4.52498
O         50.18188       70.29758       -4.86445
C         48.74867       68.22138       -6.61835
C         49.01004       66.80640       -6.16100
O         49.41223       65.97965       -6.96114
O         48.69412       66.43171       -4.90049
H         47.48828       70.42833       -6.99078
H         47.44552       68.49205       -4.93538
H         49.65274       68.68250       -7.07331
H         47.97017       68.13506       -7.40644
N         49.49317       68.78739       -3.35344
C         50.55102       68.99740       -2.37791
C         51.59656       67.89172       -2.50201
O         52.77462       68.21471       -2.56686
C         49.92820       69.00801       -0.94192
C         48.85547       70.12200       -0.81247
C         51.01726       69.16260        0.14114
C         48.05713       70.05653        0.49429
H         48.82032       68.04178       -3.14855
H         51.06168       69.97359       -2.54653
H         49.42895       68.02666       -0.78105
H         48.11574       70.01277       -1.63093
H         49.32934       71.12275       -0.91175
H         51.54189       70.13542        0.03417
H         50.58562       69.09476        1.15944
H         51.76374       68.34433        0.07434
H         48.69798       70.23313        1.38056
H         47.27206       70.84190        0.48739
H         47.56041       69.06724        0.59120
N         51.24366       66.57133       -2.48189
C         52.21034       65.48073       -2.31655
C         52.33081       64.50547       -3.49919
O         53.11168       63.57099       -3.38053
C         51.90977       64.76985       -0.97193
C         50.55910       64.11389       -0.85385
O         49.77748       64.10026       -1.78600
O         50.20183       63.54153        0.31096
H         50.24154       66.34119       -2.48583
H         53.23362       65.89970       -2.20189
H         51.97223       65.53619       -0.16801
H         52.68615       64.00260       -0.77059
N         51.68448       64.68560       -4.68980
C         51.93512       63.85769       -5.87790
C         51.44118       62.41245       -5.82476
O         51.64424       61.69643       -6.79485
H         51.07608       65.50553       -4.80058
H         53.02767       63.85805       -6.08532
H         51.43602       64.32989       -6.74952
N         50.78544       61.91570       -4.74445
C         50.29139       60.53496       -4.60011
C         49.16129       60.12691       -5.56119
O         48.73235       58.98404       -5.48332
C         49.80350       60.36041       -3.13466
C         48.74916       61.37910       -2.76735
O         48.19393       62.12299       -3.74177
O         48.46516       61.58249       -1.59957
H         50.66944       62.55371       -3.94842
H         51.14099       59.83673       -4.76483
H         50.68627       60.54710       -2.48578
H         49.43937       59.33131       -2.92616
N         48.60403       60.98812       -6.45785
C         47.45699       60.65229       -7.29373
C         46.22044       60.38947       -6.45737
O         45.55887       59.37980       -6.65630
H         48.97672       61.93976       -6.54231
H         47.68538       59.79337       -7.96191
H         47.23182       61.52542       -7.94170
N         45.85860       61.28045       -5.49340
C         44.66707       61.17203       -4.65144
C         44.13844       62.56757       -4.32267
O         44.77182       63.55089       -4.69024
C         44.99220       60.45663       -3.31278
C         45.53232       59.02991       -3.48559
C         45.66491       58.31590       -2.15947
N         46.47874       58.78422       -1.18542
O         45.02670       57.29229       -1.96546
H         46.47935       62.08676       -5.35622
H         43.87524       60.60628       -5.19168
H         44.05846       60.38989       -2.71363
H         45.72708       61.05994       -2.73717
H         46.52337       59.05815       -3.98258
H         44.82774       58.45562       -4.12532
H         47.02639       59.63990       -1.32289
H         46.56147       58.28830       -0.28537
N         42.99805       62.73606       -3.59303
C         42.56885       64.04221       -3.10413
C         42.49967       63.98120       -1.59246
O         41.62254       63.31327       -1.05908
C         41.21186       64.46996       -3.72700
C         40.73076       65.81959       -3.16342
C         41.32863       64.58403       -5.25351
H         42.43917       61.90874       -3.33048
H         43.31263       64.82062       -3.38179
H         40.44193       63.70231       -3.49054
H         41.47551       66.62027       -3.36052
H         39.76326       66.10950       -3.62438
H         40.55840       65.74983       -2.07215
H         40.34960       64.87624       -5.69027
H         42.08374       65.35177       -5.53071
H         41.62459       63.61208       -5.69928
N         43.41244       64.64884       -0.83242
C         43.33975       64.69533        0.62481
C         42.16443       65.59592        1.00905
O         41.62676       66.26043        0.13877
C         44.69058       65.25000        1.16492
C         45.01026       65.07915        2.63286
N         46.17684       65.56628        3.11657
O         44.26459       64.47168        3.38176
H         44.18459       65.13575       -1.30874
H         43.20896       63.65357        0.99207
H         44.77005       66.32264        0.89114
H         45.50739       64.70711        0.65100
H         46.83745       66.06067        2.49859
H         46.42566       65.44335        4.10946
N         41.71218       65.69521        2.28315
C         40.69184       66.65597        2.69279
C         41.19027       68.07482        2.45614
O         40.45495       68.88348        1.90722
C         40.37137       66.43732        4.18603
C         39.31129       67.36559        4.73286
C         38.00482       67.36541        4.21120
C         39.62108       68.22499        5.79983
C         37.02833       68.20941        4.75296
C         38.64438       69.06471        6.33999
C         37.34291       69.05818        5.81997
O         36.38925       69.85711        6.34000
H         42.11049       65.07963        2.99785
H         39.75590       66.48475        2.11537
H         41.31158       66.54759        4.77013
H         40.01254       65.39376        4.32257
H         37.73691       66.70858        3.39333
H         40.61833       68.24052        6.22121
H         36.02373       68.19881        4.34827
H         38.90023       69.71534        7.16653
H         36.56515       70.44860        7.08600
N         42.44910       68.43295        2.84071
C         42.98257       69.78903        2.70468
C         43.00624       70.25999        1.25458
O         42.99693       71.46045        1.02012
C         44.41099       69.88857        3.29371
C         44.47352       69.48645        4.78014
C         45.86839       69.61937        5.31819
O         46.45488       68.64072        5.75370
O         46.47431       70.82142        5.33846
H         43.04275       67.69839        3.24941
H         42.31547       70.46928        3.27863
H         44.76514       70.93901        3.19456
H         45.09743       69.23372        2.70944
H         44.15463       68.43287        4.91551
H         43.79299       70.13111        5.37453
N         43.09953       69.36595        0.23439
C         43.12964       69.73458       -1.17667
C         41.71944       70.02836       -1.65197
O         41.48528       71.09085       -2.21009
C         43.77710       68.59443       -1.99277
C         45.23772       68.38232       -1.53594
C         45.92401       67.22356       -2.19605
O         47.16583       66.88942       -1.80360
O         45.36593       66.55602       -3.04992
H         43.18436       68.36781        0.47192
H         43.77724       70.62769       -1.33597
H         43.77231       68.85118       -3.07580
H         43.19776       67.65682       -1.84850
H         45.26473       68.18465       -0.44679
H         45.82313       69.30596       -1.72927
N         40.72099       69.12825       -1.42650
C         39.34042       69.32157       -1.81641
H         38.70545       69.34993       -0.90496
H         39.18750       70.26082       -2.38598
H         39.01540       68.46608       -2.44503
H         40.93863       68.26384       -0.92070
Ca        48.33571       64.34120       -4.12836
O         47.06610       64.11287       -6.86014
H         48.01839       63.94407       -6.65987
H         46.97965       63.89329       -7.81957
O         45.68205       66.44746       -5.89087
H         45.95911       66.74989       -6.79120
H         45.06076       67.14976       -5.57496
O         46.69929       63.94017       -1.52548
H         47.29939       64.10220       -0.75439
H         46.19422       63.12526       -1.27969

Ca 1.0



