%chk=holoCaM-CaMKII.loop1.water2.frame93.chk
%nprocshared=20
%mem=10GB
%nosave
#b3lyp/svp scf=(tight,noincore,xqc) Test 
#IOP(5/87=12) Density=Current Pop=(MK,readradii) iop(6/33=2) iop(6/42=6)

holoCaM-CaMKII.loop1.water2.frame93 

   0  1 
C          0.62312       46.70851       53.86669
C         -0.67573       46.86530       53.13848
O         -1.64951       46.23714       53.52599
H          1.41408       47.35160       53.42625
H          0.48278       47.00096       54.92856
H          0.95219       45.65116       53.81458
N         -0.77455       47.71264       52.07940
C         -2.03064       47.94848       51.38556
C         -2.50407       46.68231       50.68634
O         -1.74879       46.15502       49.88073
C         -1.85739       49.09712       50.37212
C         -3.16613       49.68845       49.95450
O         -3.17184       50.65060       49.20429
O         -4.31673       49.29372       50.53251
H          0.06243       48.24574       51.79425
H         -2.75842       48.28213       52.14902
H         -1.25764       48.77074       49.49516
H         -1.31658       49.93540       50.86608
N         -3.73776       46.14228       50.93363
C         -4.19419       44.89636       50.31303
C         -5.33124       45.08998       49.32033
O         -5.64034       44.12635       48.63139
C         -4.68579       43.89942       51.38035
C         -3.66637       43.46805       52.43816
C         -2.45080       42.74776       51.83622
C         -1.64090       41.97725       52.89316
N         -1.10063       42.84061       53.94273
H         -4.37257       46.62971       51.58233
H         -3.36510       44.44058       49.72958
H         -5.04496       42.97632       50.87292
H         -5.55468       44.35168       51.90890
H         -4.20455       42.75981       53.10529
H         -3.34555       44.33829       53.04609
H         -1.80484       43.47732       51.30101
H         -2.80545       41.99140       51.10249
H         -0.80274       41.45560       52.38076
H         -2.29160       41.20046       53.35430
H         -0.47817       43.56815       53.52517
H         -1.87183       43.29095       54.48516
H         -0.54285       42.25257       54.60360
N         -6.00524       46.26699       49.18055
C         -7.06464       46.45765       48.18832
C         -6.66941       47.48955       47.13647
O         -7.43613       47.70018       46.20714
C         -8.42099       46.74241       48.87259
C         -8.50084       47.98343       49.71781
O         -7.54501       48.72792       49.85088
O         -9.65701       48.27303       50.34447
H         -5.75590       47.05976       49.78559
H         -7.22458       45.51887       47.61400
H         -8.66510       45.87440       49.52399
H         -9.20870       46.80662       48.09070
N         -5.45045       48.10208       47.16447
C         -4.93550       48.92648       46.08851
C         -5.69268       50.21068       45.86623
O         -6.09641       50.47523       44.74340
H         -4.79558       47.91818       47.93689
H         -4.89685       48.32885       45.15210
H         -3.89013       49.21028       46.34387
N         -5.83865       51.09865       46.88330
C         -6.30672       52.47235       46.71006
C         -5.19147       53.44498       47.11373
O         -5.45650       54.63102       47.25069
C         -7.66155       52.69991       47.42914
C         -7.66968       52.20397       48.83377
O         -6.79052       52.67559       49.71852
O         -8.39679       51.27613       49.14820
H         -5.51671       50.81868       47.82332
H         -6.51928       52.70296       45.64355
H         -8.43670       52.12686       46.87386
H         -7.94651       53.77262       47.39471
N         -3.88745       53.02685       47.18479
C         -2.75159       53.90933       47.39972
C         -2.57192       54.40402       48.81933
O         -1.59664       55.10573       49.04322
H         -3.65267       52.04881       46.96522
H         -2.80414       54.76333       46.68990
H         -1.82525       53.33996       47.16248
N         -3.43158       54.08607       49.83032
C         -3.23137       54.52569       51.21336
C         -3.19737       53.32889       52.15681
O         -3.44079       52.21618       51.71980
C         -4.33521       55.53803       51.60669
C         -4.20592       56.85162       50.81655
O         -5.61797       54.98377       51.44800
H         -4.26108       53.51422       49.62462
H         -2.24972       55.03496       51.32405
H         -4.21512       55.81124       52.67631
H         -5.85979       55.02443       50.48515
H         -4.99654       57.56275       51.13644
H         -3.21557       57.31555       51.01081
H         -4.30853       56.67648       49.72422
N         -2.86097       53.48758       53.47395
C         -2.83467       52.38042       54.43093
C         -3.75438       52.72402       55.58976
O         -3.48802       53.69035       56.29154
C         -1.39178       52.11044       54.96036
C         -0.40001       51.86289       53.79718
C         -1.39988       50.90322       55.92627
C          1.05215       51.72086       54.26714
H         -2.60447       54.42757       53.81011
H         -3.18610       51.44684       53.94284
H         -1.05019       53.01349       55.51427
H         -0.42691       52.73252       53.10711
H         -0.69483       50.95496       53.22690
H         -1.71560       49.97896       55.39577
H         -0.40902       50.73430       56.38904
H         -2.08991       51.07526       56.76799
H          1.19516       50.82433       54.90290
H          1.71900       51.60976       53.38773
H          1.36105       52.62490       54.83510
N         -4.85930       51.97235       55.85296
C         -5.73663       52.24674       56.99131
C         -5.05130       51.87102       58.30012
O         -3.95733       51.33367       58.27855
C         -7.08027       51.48277       56.84891
C         -7.83957       51.93207       55.59934
O         -6.84476       50.10352       56.78192
H         -5.08475       51.19499       55.21637
H         -5.97497       53.33356       57.00896
H         -7.71595       51.71031       57.73375
H         -7.72558       49.65105       56.85475
H         -8.02059       53.02705       55.62933
H         -7.26109       51.67634       54.69244
H         -8.81824       51.41204       55.54032
N         -5.65560       52.11540       59.49357
C         -5.09801       51.68162       60.77398
C         -5.02591       50.15722       60.80127
O         -3.97980       49.60052       61.10126
C         -5.97999       52.21633       61.93267
C         -5.41177       51.86834       63.31256
O         -6.06149       53.61718       61.83137
H         -6.56068       52.60975       59.48796
H         -4.08151       52.11766       60.90741
H         -6.99630       51.76115       61.84452
H         -7.01031       53.87316       61.97323
H         -5.34719       50.76967       63.45349
H         -4.40029       52.31167       63.43688
H         -6.07518       52.28104       64.10282
N         -6.12991       49.43301       60.46894
C         -6.22802       47.97384       60.48802
C         -5.18530       47.30611       59.59957
O         -4.44295       46.46968       60.09469
C         -7.66680       47.58885       60.08812
C         -7.95665       46.08828       60.20352
C         -9.44698       45.76007       59.98220
C        -10.41679       46.40273       61.00147
N        -10.09982       46.03572       62.38380
H         -6.96860       49.96786       60.19260
H         -6.07201       47.62633       61.53425
H         -7.89690       47.93709       59.05624
H         -8.32641       48.13260       60.79400
H         -7.64668       45.71829       61.20230
H         -7.35382       45.54484       59.44405
H         -9.56534       44.65694       60.03908
H         -9.74674       46.08166       58.96062
H        -11.44661       46.05822       60.76221
H        -10.42422       47.50927       60.90510
H        -10.07573       44.99558       62.48668
H         -9.18317       46.44595       62.67294
H        -10.83584       46.42285       63.01734
N         -5.04681       47.65814       58.29128
C         -4.01702       47.12036       57.39770
C         -2.64231       47.25147       58.02619
O         -1.91686       46.26685       58.06938
C         -4.04440       47.85411       56.03654
C         -5.27339       47.46074       55.19699
C         -5.35182       48.20745       53.89394
O         -4.48186       49.19105       53.59988
O         -6.22701       47.92615       53.09259
H         -5.66856       48.39312       57.93841
H         -4.19221       46.03660       57.20968
H         -3.14645       47.56855       55.44404
H         -4.00913       48.95281       56.20982
H         -6.21383       47.64551       55.75485
H         -5.20368       46.37329       54.97274
N         -2.23873       48.42011       58.58720
C         -0.96030       48.55634       59.24746
H         -0.13931       48.41407       58.51468
H         -0.87485       49.56752       59.69844
H         -0.87106       47.80177       60.05937
H         -2.87673       49.22313       58.58602
Ca        -5.75917       50.97793       50.69790
O         -7.29719       52.88795       52.50272
H         -7.58313       53.62424       53.09869
H         -6.32836       52.78611       52.68341
O         -8.39358       49.82184       53.00558
H         -9.15624       50.36141       52.67972
H         -8.67221       48.88360       52.85737

Ca 1.0



