%chk=holoCaM-CaMKII.loop1.water2.frame32.chk
%nprocshared=20
%mem=10GB
%nosave
#b3lyp/svp scf=(tight,noincore,xqc) Test 
#IOP(5/87=12) Density=Current Pop=(MK,readradii) iop(6/33=2) iop(6/42=6)

holoCaM-CaMKII.loop1.water2.frame32 

   0  1 
C         35.10950       61.57213       29.19178
C         34.80629       60.10779       29.15637
O         35.37637       59.38964       28.34822
H         35.88223       61.83195       28.43902
H         34.18291       62.14520       28.97832
H         35.48212       61.84469       30.20217
N         33.91045       59.59054       30.03533
C         33.58148       58.17410       30.08816
C         32.90576       57.77021       28.78154
O         31.88706       58.35854       28.44533
C         32.69492       57.93078       31.32305
C         32.49454       56.49703       31.67708
O         31.78465       56.21524       32.77641
O         32.99741       55.59479       31.02968
H         33.46863       60.23609       30.71045
H         34.52734       57.60667       30.24284
H         31.70732       58.42410       31.19444
H         33.19721       58.38453       32.20660
N         33.44926       56.81061       27.97296
C         32.97076       56.52268       26.61822
C         32.28727       55.16061       26.50986
O         31.59569       54.93735       25.52655
C         34.17906       56.62957       25.65677
C         33.87229       56.58014       24.15001
C         33.12939       57.83355       23.66629
C         32.96547       57.82380       22.14072
N         32.31961       59.05181       21.67800
H         34.27762       56.30778       28.30834
H         32.20533       57.28081       26.35200
H         34.87603       55.79651       25.90017
H         34.72267       57.57983       25.85583
H         33.31757       55.65759       23.88143
H         34.85051       56.54408       23.62182
H         33.72259       58.73079       23.95043
H         32.12907       57.89962       24.14272
H         32.35570       56.94467       21.83584
H         33.96633       57.74077       21.66019
H         31.36828       59.14152       22.10263
H         32.90124       59.88209       21.93729
H         32.22695       59.01927       20.63710
N         32.39083       54.22274       27.49335
C         31.62327       52.97555       27.52300
C         30.67168       52.96415       28.71520
O         29.93645       51.99678       28.85617
C         32.55138       51.73465       27.50463
C         33.69300       51.86546       28.46055
O         33.49215       52.15476       29.75655
O         34.83306       51.88477       28.02160
H         33.00834       54.41282       28.29441
H         30.96712       52.88755       26.63019
H         32.98572       51.64194       26.48361
H         31.97319       50.80743       27.70304
N         30.57428       54.02040       29.57748
C         29.58859       54.09042       30.63855
C         29.76243       53.00074       31.66389
O         28.83923       52.22385       31.86034
H         31.16853       54.85013       29.45744
H         28.57411       54.03788       30.18788
H         29.67812       55.07151       31.15494
N         30.91428       52.91037       32.38307
C         31.12733       51.93183       33.44767
C         31.27940       52.59306       34.81907
O         31.44986       51.87592       35.79465
C         32.30740       50.99425       33.09234
C         33.66012       51.62837       32.87856
O         33.84695       52.95588       32.95895
O         34.61050       50.91506       32.60141
H         31.65999       53.58841       32.17659
H         30.23721       51.27327       33.54373
H         32.04506       50.45825       32.15460
H         32.40764       50.23690       33.89935
N         31.20911       53.94666       34.97559
C         31.31127       54.63852       36.24902
C         32.66689       55.28395       36.44576
O         32.82819       55.98178       37.43763
H         31.07204       54.54042       34.15810
H         31.14918       53.94680       37.10280
H         30.50805       55.40670       36.28993
N         33.71669       55.01807       35.61236
C         35.08124       55.46398       35.87106
C         35.73130       56.08459       34.64149
O         35.18244       56.02036       33.54901
C         35.92700       54.25771       36.35915
C         35.44240       53.71562       37.71286
O         35.94645       53.23254       35.39569
H         33.57311       54.38020       34.82444
H         35.08417       56.23863       36.66910
H         36.97535       54.58790       36.51931
H         35.08693       52.73678       35.44176
H         35.49574       54.51333       38.48303
H         34.39657       53.34732       37.64798
H         36.09039       52.87135       38.03033
N         36.92576       56.72917       34.78208
C         37.68496       57.34201       33.69541
C         39.11428       56.80034       33.75257
O         39.70489       56.81515       34.82500
C         37.67601       58.89646       33.83424
C         36.21943       59.43411       33.90218
C         38.42608       59.53596       32.64347
C         36.12929       60.94199       34.15554
H         37.31144       56.82207       35.73526
H         37.22153       57.11281       32.71094
H         38.19359       59.17130       34.77995
H         35.69004       58.94669       34.74758
H         35.67432       59.18763       32.96406
H         39.46903       59.17183       32.58880
H         37.91426       59.29385       31.68606
H         38.49122       60.63694       32.74079
H         35.06308       61.23629       34.25300
H         36.65518       61.20404       35.09836
H         36.55778       61.52848       33.31870
N         39.75915       56.37814       32.62819
C         41.14531       55.91070       32.61268
C         42.03640       56.98833       32.02959
O         41.53207       58.00825       31.58715
C         41.29028       54.60650       31.77197
C         40.48890       53.42932       32.32886
O         40.95536       54.83193       30.42493
H         39.28535       56.49468       31.72909
H         41.50084       55.71995       33.64860
H         42.35275       54.28420       31.78702
H         39.96914       54.79783       30.33563
H         39.41105       53.67805       32.32897
H         40.64534       52.53805       31.68156
H         40.81946       53.18672       33.35890
N         43.38850       56.82804       31.99459
C         44.27399       57.78183       31.32794
C         43.99013       57.80708       29.83429
O         44.17194       58.84100       29.20711
C         45.76283       57.42910       31.54539
C         46.16010       57.53116       33.02168
O         46.02286       56.13337       31.06600
H         43.79206       55.98266       32.42542
H         44.10097       58.79836       31.74969
H         46.36956       58.17388       30.97651
H         46.99493       56.08594       30.87149
H         45.58912       56.81319       33.64561
H         47.24226       57.30946       33.13288
H         45.97381       58.56057       33.39555
N         43.55784       56.67914       29.20249
C         43.25697       56.60500       27.77882
C         42.12982       57.57668       27.45640
O         42.28361       58.43149       26.59602
C         42.82509       55.16183       27.37830
C         43.79916       54.02511       27.76972
C         45.18064       54.10752       27.11108
C         46.06502       52.94752       27.60257
N         47.37436       52.96173       26.95321
H         43.42634       55.83649       29.77372
H         44.16599       56.86778       27.19518
H         42.65104       55.12784       26.28058
H         41.86129       54.91971       27.87408
H         43.33005       53.06152       27.47206
H         43.92543       53.98386       28.86991
H         45.67575       55.06607       27.37407
H         45.06063       54.05016       26.00760
H         45.56674       51.97519       27.39019
H         46.20279       53.03282       28.70466
H         47.95180       52.17743       27.33495
H         47.26192       52.82635       25.92239
H         47.86362       53.86606       27.14301
N         40.96130       57.48925       28.15021
C         39.79108       58.33998       27.94176
C         40.07960       59.79189       28.28657
O         39.40969       60.66330       27.75042
C         38.61671       57.83240       28.81773
C         38.21121       56.39807       28.42210
C         37.23799       55.75461       29.36396
O         37.46215       55.68907       30.55728
O         36.21169       55.06268       28.86762
H         40.91214       56.76731       28.87874
H         39.48280       58.27620       26.87412
H         37.73545       58.49882       28.72374
H         38.94968       57.85391       29.87770
H         39.09217       55.73408       28.42126
H         37.80329       56.39010       27.38790
N         41.02455       60.12147       29.21201
C         41.31724       61.47705       29.62704
H         42.38864       61.69413       29.43471
H         40.69954       62.22787       29.09288
H         41.12490       61.57350       30.71711
H         41.56458       59.37819       29.66481
Ca        34.99471       53.73524       30.21304
O         37.65486       52.30311       29.90543
H         38.24142       52.79835       29.28073
H         37.35104       51.51277       29.39252
O         37.19584       52.50927       32.92454
H         37.67683       51.72447       32.56115
H         37.74881       52.79742       33.69348

Ca 1.0



