%chk=holoCaM-CaMKII.loop1.water2.frame216.chk
%nprocshared=20
%mem=10GB
%nosave
#b3lyp/svp scf=(tight,noincore,xqc) Test 
#IOP(5/87=12) Density=Current Pop=(MK,readradii) iop(6/33=2) iop(6/42=6)

holoCaM-CaMKII.loop1.water2.frame216 

   0  1 
C         15.51798       58.69777       56.09188
C         14.83167       58.85943       57.41526
O         13.66671       59.22659       57.43874
H         16.56804       58.35758       56.21903
H         14.97581       57.94423       55.48410
H         15.52555       59.66978       55.55687
N         15.49759       58.58960       58.56933
C         14.89073       58.71010       59.88777
C         14.51921       60.16305       60.16033
O         15.38448       61.02153       60.05562
C         15.88065       58.17660       60.94437
C         15.29404       58.01886       62.31338
O         14.13017       58.29873       62.54758
O         16.06376       57.50865       63.28697
H         16.47510       58.26354       58.50259
H         13.99100       58.05449       59.92085
H         16.77579       58.83367       60.99779
H         16.21250       57.16124       60.63806
N         13.25101       60.50414       60.53178
C         12.82083       61.87806       60.77595
C         12.63750       62.10820       62.26163
O         13.31703       62.97176       62.80088
C         11.53719       62.20328       59.97951
C         11.80784       62.21250       58.46667
C         10.58668       62.67524       57.65881
C         10.94878       62.81236       56.17073
N          9.82127       63.32380       55.39200
H         12.56519       59.75231       60.67879
H         13.60450       62.59852       60.44998
H         11.19763       63.22168       60.27081
H         10.72481       61.48284       60.22465
H         12.11729       61.20216       58.12727
H         12.63861       62.92568       58.27314
H         10.25931       63.66963       58.03357
H          9.74945       61.95349       57.78418
H         11.26285       61.82461       55.76618
H         11.80222       63.51979       56.06678
H          9.01518       62.66015       55.44228
H          9.53183       64.26245       55.75225
H         10.11610       63.42688       54.39369
N         11.76658       61.36854       63.00372
C         11.62480       61.55032       64.45155
C         12.90262       61.23409       65.23963
O         12.90879       61.48220       66.43772
C         10.43388       60.73130       64.99683
C         10.51208       59.27809       64.63435
O         11.47003       58.60915       64.97390
O          9.52836       58.71581       63.90779
H         11.18493       60.66937       62.51800
H         11.38973       62.62060       64.64338
H          9.49375       61.14264       64.57151
H         10.37553       60.83586       66.10274
N         14.02121       60.71249       64.65755
C         15.25852       60.47771       65.38224
C         15.09162       59.45620       66.48047
O         15.37510       59.75797       67.63050
H         14.02547       60.49118       63.65545
H         15.63594       61.43882       65.79345
H         16.02409       60.09152       64.67251
N         14.67128       58.20143       66.17135
C         14.57393       57.09955       67.12370
C         15.58655       56.00880       66.78195
O         15.49627       54.91431       67.32003
C         13.10855       56.60951       67.20410
C         12.47454       56.12518       65.92142
O         13.18344       55.95398       64.78913
O         11.27613       55.89318       65.90873
H         14.44780       58.00509       65.18738
H         14.82969       57.43697       68.15263
H         12.51172       57.48353       67.54839
H         13.01174       55.81694       67.97736
N         16.64826       56.28528       65.96659
C         17.71666       55.35724       65.63935
C         17.33840       54.25295       64.67486
O         18.24512       53.53200       64.27943
H         16.77446       57.24281       65.61397
H         18.15743       54.93845       66.56925
H         18.51406       55.93957       65.12602
N         16.06165       54.03961       64.24122
C         15.71409       53.00248       63.27148
C         14.93146       53.58885       62.10098
O         14.59518       54.76478       62.12219
C         14.94311       51.85001       63.96472
C         15.80912       51.12275       65.00486
O         13.75052       52.30288       64.55055
H         15.29776       54.61518       64.61518
H         16.63737       52.56036       62.83618
H         14.67631       51.08922       63.20067
H         13.97760       52.82059       65.36664
H         16.72426       50.71644       64.52411
H         16.11005       51.80891       65.82481
H         15.23736       50.27793       65.44393
N         14.66120       52.82014       61.00826
C         13.95282       53.28307       59.81438
C         12.79825       52.32928       59.53341
O         13.03492       51.13396       59.41031
C         14.95081       53.35681       58.61847
C         16.03203       54.43396       58.91530
C         14.21779       53.68055       57.29851
C         17.16459       54.48659       57.88959
H         15.02447       51.85360       60.99634
H         13.54551       54.30877       59.95827
H         15.44033       52.36345       58.50837
H         16.51110       54.22345       59.89407
H         15.55148       55.43585       58.97658
H         13.45864       52.90623       57.06778
H         13.71617       54.66888       57.35919
H         14.91590       53.68435       56.43875
H         17.68362       53.50584       57.84710
H         16.79844       54.75835       56.88026
H         17.89821       55.26204       58.19710
N         11.52338       52.79470       59.38511
C         10.37818       51.92326       59.12256
C         10.12392       51.78102       57.62565
O         10.79625       52.41726       56.82676
C          9.10035       52.47092       59.82394
C          9.29145       52.67057       61.32313
O          8.73297       53.69663       59.25390
H         11.36052       53.80986       59.43559
H         10.58723       50.90876       59.52943
H          8.27774       51.73509       59.67736
H          7.77439       53.84559       59.46459
H         10.06164       53.44853       61.49777
H          8.34007       53.02524       61.77511
H          9.58691       51.71918       61.81023
N          9.12506       50.96204       57.18710
C          8.70343       50.84204       55.78995
C          8.25377       52.18983       55.25733
O          8.63618       52.55459       54.15545
C          7.54276       49.82168       55.64615
C          8.01656       48.39239       55.94098
O          6.48134       50.16868       56.50092
H          8.60637       50.42472       57.89697
H          9.54629       50.47884       55.15922
H          7.19152       49.84892       54.58800
H          5.71709       49.57691       56.27572
H          8.38332       48.29240       56.98278
H          7.17738       47.68027       55.79205
H          8.83290       48.11311       55.24117
N          7.43879       52.98174       56.00401
C          6.97884       54.30420       55.59465
C          8.15994       55.24519       55.38130
O          8.26832       55.82394       54.30915
C          5.98379       54.81750       56.65880
C          5.28833       56.13985       56.29778
C          4.16867       56.49932       57.29887
C          2.95413       55.54798       57.21211
N          1.90971       55.92944       58.16172
H          7.13920       52.62434       56.92466
H          6.40938       54.20732       54.64275
H          6.48309       54.92201       57.64671
H          5.21591       54.02488       56.74393
H          4.84870       56.08464       55.27832
H          6.05275       56.94685       56.30445
H          3.80958       57.52406       57.06106
H          4.57997       56.50844       58.33200
H          3.24401       54.50045       57.42965
H          2.53954       55.58413       56.17975
H          1.09229       55.28693       58.04408
H          2.26828       55.83904       59.14011
H          1.59610       56.91094       57.98579
N          9.10126       55.41991       56.35463
C         10.25809       56.31114       56.21830
C         11.22547       55.85467       55.12254
O         12.13575       56.60533       54.79902
C         11.03142       56.44795       57.56058
C         10.12496       56.92782       58.71334
C         10.84428       57.11245       60.02180
O         11.64194       56.15015       60.52390
O         10.69330       58.14661       60.65000
H          8.97209       54.89836       57.22476
H          9.87195       57.31834       55.94604
H         11.86491       57.17152       57.42816
H         11.46956       55.46358       57.82783
H          9.33694       56.17944       58.90254
H          9.62894       57.88201       58.43123
N         11.10345       54.64214       54.51243
C         11.97291       54.20010       53.44472
H         13.02512       54.16333       53.79426
H         11.67217       53.18068       53.11508
H         11.88378       54.88586       52.57582
H         10.37434       53.99373       54.81320
Ca        12.26428       56.15906       62.71127
O          9.20637       55.78151       63.09142
H          8.47093       56.44310       63.12061
H          8.83997       54.98689       63.55370
O         11.33468       53.10936       63.58044
H         11.92559       53.86219       63.82311
H         10.59123       53.16172       64.23014

Ca 1.0



