%chk=holoCaM-CaMKII.loop4.water2.frame159.chk
%nprocshared=20
%mem=10GB
%nosave
#b3lyp/svp scf=(tight,noincore,xqc) Test 
#IOP(5/87=12) Density=Current Pop=(MK,readradii) iop(6/33=2) iop(6/42=6)

holoCaM-CaMKII.loop4.water2.frame159 

   -3  1 
C         74.75588       92.44301       44.01087
C         74.30992       91.11597       44.53842
O         74.14190       90.19543       43.75144
H         75.72908       92.31535       43.49077
H         74.00242       92.82973       43.29583
H         74.89042       93.17941       44.83079
N         74.13516       90.92646       45.87417
C         73.80772       89.62439       46.42536
C         72.40250       89.18807       46.02441
O         71.45440       89.93255       46.22960
C         73.97425       89.61996       47.95254
C         74.12455       88.22128       48.47268
O         74.36779       88.05018       49.65210
O         74.12226       87.16244       47.63674
H         74.31926       91.71169       46.51844
H         74.57720       88.92001       46.03203
H         73.14702       90.16450       48.45745
H         74.93298       90.12384       48.20823
N         72.21047       87.96089       45.47336
C         70.93691       87.43777       44.98885
C         70.27315       86.56075       46.04763
O         69.08671       86.75855       46.27423
C         71.18505       86.70023       43.63369
C         71.68158       87.67265       42.52643
C         69.98455       85.87273       43.14866
C         70.61693       88.64349       41.99770
H         73.03003       87.34659       45.39373
H         70.21759       88.26297       44.79823
H         71.98909       85.96444       43.79835
H         72.04604       87.07906       41.66039
H         72.54616       88.25618       42.90599
H         69.74243       85.07819       43.88531
H         69.08537       86.50319       43.00282
H         70.24219       85.36664       42.19254
H         71.06907       89.30650       41.23092
H         69.79117       88.08733       41.50645
H         70.20003       89.28108       42.80186
N         70.94977       85.60876       46.75937
C         70.28705       84.74675       47.74669
C         70.54535       85.16317       49.19715
O         70.04661       84.48885       50.08815
C         70.57854       83.25621       47.46160
C         72.00231       82.81749       47.65967
O         72.94496       83.67336       48.08551
O         72.30454       81.65459       47.44683
H         71.96469       85.51141       46.61693
H         69.18370       84.83810       47.63858
H         70.28360       83.03819       46.41178
H         69.94176       82.63433       48.12832
N         71.19033       86.32529       49.51190
C         71.20737       86.88070       50.86134
C         72.12564       86.21055       51.86723
O         72.13151       86.66617       53.00281
H         71.54494       86.92636       48.75533
H         70.16682       86.89047       51.25546
H         71.54001       87.93960       50.79793
N         72.95063       85.16943       51.55574
C         73.87244       84.56809       52.53185
C         75.03706       85.50047       52.93730
O         75.85568       85.08093       53.74218
C         74.34722       83.17528       52.02572
C         75.13874       83.21144       50.75468
O         75.62365       84.37819       50.32799
O         75.32885       82.19502       50.10690
H         72.90377       84.77429       50.60615
H         73.29402       84.34013       53.45432
H         73.42388       82.58798       51.82700
H         74.93121       82.63569       52.80103
N         75.15880       86.77751       52.45739
C         76.14260       87.74507       52.93073
C         77.40874       87.82253       52.09761
O         78.21858       88.69417       52.38711
H         74.43908       87.15109       51.83598
H         76.37491       87.58169       54.00491
H         75.67135       88.75225       52.86973
N         77.66439       86.97462       51.06080
C         78.85588       87.05697       50.21512
C         78.47255       87.19401       48.75054
O         77.29013       87.14495       48.43336
C         79.71551       85.79008       50.39487
C         80.27315       85.66108       51.81752
C         81.17391       84.45644       51.92420
N         80.90085       83.45844       52.79575
O         82.16864       84.38407       51.21715
H         76.99121       86.22823       50.85749
H         79.47053       87.94511       50.48176
H         80.57769       85.83485       49.69606
H         79.11268       84.88887       50.14565
H         79.43455       85.58452       52.54275
H         80.86890       86.56615       52.06553
H         80.07160       83.49860       53.40536
H         81.52484       82.64044       52.86201
N         79.43181       87.37476       47.79372
C         79.13848       87.43614       46.36537
C         79.95833       86.37052       45.64257
O         81.17882       86.46498       45.60843
C         79.42480       88.85439       45.80133
C         79.05511       88.94620       44.31061
C         78.63537       89.92529       46.57318
H         80.41653       87.47608       48.08811
H         78.05709       87.23527       46.19799
H         80.50886       89.07829       45.91389
H         77.97034       88.75495       44.16681
H         79.28789       89.95806       43.91704
H         79.63072       88.21376       43.71047
H         78.85920       90.93410       46.16519
H         77.54134       89.74290       46.49403
H         78.92009       89.92827       47.64613
N         79.33758       85.30957       45.06079
C         80.01479       84.23959       44.32764
C         80.52417       84.75336       42.98071
O         80.25781       85.89639       42.63928
C         78.98627       83.08407       44.15129
C         79.48144       81.82055       43.49787
N         80.52587       81.13103       44.00920
O         78.90748       81.39421       42.50801
H         78.32184       85.24026       45.17934
H         80.86169       83.86663       44.94306
H         78.11176       83.46502       43.57953
H         78.62749       82.79410       45.16131
H         81.01752       81.46242       44.85049
H         80.84559       80.26250       43.55500
N         81.24996       83.95254       42.14634
C         81.59504       84.33798       40.77950
C         80.32066       84.49039       39.96567
O         80.16457       85.48002       39.26720
C         82.48259       83.26502       40.10534
C         82.85723       83.68541       38.69792
C         83.65299       84.82536       38.48454
C         82.39560       82.95764       37.58739
C         83.97306       85.23376       37.18660
C         82.71374       83.37117       36.28907
C         83.50231       84.51302       36.08503
O         83.81052       84.92809       34.83954
H         81.53489       83.02022       42.47480
H         82.16819       85.29126       40.79573
H         81.93081       82.29908       40.08670
H         83.41254       83.10781       40.69313
H         84.02379       85.40166       39.32250
H         81.77684       82.07957       37.72346
H         84.58339       86.11580       37.03734
H         82.34237       82.80710       35.44269
H         83.49682       84.46544       34.04943
N         79.37004       83.51419       40.00883
C         78.12212       83.54952       39.25286
C         77.20780       84.71935       39.65254
O         76.22786       84.93783       38.95547
C         77.39674       82.19010       39.42855
C         76.25704       81.93484       38.42804
C         75.61003       80.58930       38.63378
O         74.71083       80.23576       37.88847
O         75.99963       79.76963       39.63135
H         79.57136       82.68727       40.58503
H         78.40635       83.65956       38.18241
H         77.02370       82.11195       40.47440
H         78.14105       81.37846       39.26315
H         76.67625       81.97029       37.39851
H         75.46469       82.70130       38.52121
N         77.46807       85.53274       40.72569
C         76.64770       86.69669       41.07050
C         77.38312       88.00037       40.77698
O         76.73789       89.03983       40.77176
C         76.23312       86.67202       42.56009
C         75.48970       85.39276       42.96291
C         75.11434       85.40581       44.42188
O         73.97022       85.17254       44.76143
O         76.03672       85.62827       45.37150
H         78.28526       85.34349       41.31323
H         75.73274       86.70643       40.43903
H         75.59280       87.55594       42.77833
H         77.15494       86.74520       43.17911
H         76.15384       84.52363       42.78820
H         74.57449       85.27063       42.34316
N         78.72221       88.03719       40.52496
C         79.42380       89.25279       40.18287
H         80.50727       89.03578       40.05538
H         79.03243       89.65216       39.22350
H         79.30323       90.00669       40.98746
H         79.28365       87.18626       40.58734
Ca        75.11241       85.33238       48.40619
O         75.22446       82.66194       45.98388
H         74.86652       81.86577       46.44960
H         75.70357       82.29777       45.19762
O         77.75322       83.64568       47.72007
H         77.57145       82.72473       47.40652
H         77.59145       83.60556       48.69503

Ca 1.0



