%chk=holoCaM.loop3.water2.frame385.chk
%nprocshared=20
%mem=10GB
%nosave
#b3lyp/svp scf=(tight,noincore,xqc) Test 
#IOP(5/87=12) Density=Current Pop=(MK,readradii) iop(6/33=2) iop(6/42=6)

holoCaM.loop3.water2.frame385 

   0  1 
C         67.70864       68.35347      100.79462
C         68.14013       67.01938      101.33825
O         67.35898       66.07993      101.30135
H         66.81304       68.70865      101.34606
H         68.50821       69.11754      100.90667
H         67.46316       68.26097       99.71661
N         69.38645       66.86576      101.86261
C         69.87925       65.61389      102.43478
C         69.04971       65.24471      103.66179
O         68.65593       66.14836      104.38788
C         71.37080       65.79637      102.78816
C         72.09346       64.54416      103.18775
O         73.40400       64.61592      103.45459
O         71.53709       63.46230      103.22941
H         70.01643       67.68416      101.85039
H         69.81198       64.81685      101.65983
H         71.47634       66.55480      103.59393
H         71.89631       66.17417      101.88276
N         68.74463       63.94424      103.95962
C         67.84361       63.56804      105.04995
C         68.54928       62.94877      106.25120
O         67.88905       62.77684      107.26554
C         66.78141       62.56588      104.54836
C         66.00509       63.04624      103.31647
C         64.93425       62.01073      102.93472
C         64.14597       62.38139      101.66899
N         63.43150       63.65065      101.80689
H         69.14049       63.19803      103.37577
H         67.33169       64.47876      105.42934
H         66.06392       62.36484      105.37386
H         67.28213       61.60555      104.29288
H         66.70283       63.18307      102.46082
H         65.52758       64.01797      103.55598
H         64.22504       61.88664      103.78203
H         65.42403       61.02842      102.75148
H         63.40925       61.56936      101.47640
H         64.83147       62.43639      100.79742
H         62.82827       63.63771      102.66095
H         64.10763       64.44575      101.85511
H         62.82732       63.79163      100.96566
N         69.85377       62.55341      106.21656
C         70.53759       61.95137      107.36422
C         71.84599       62.66568      107.70377
O         72.53983       62.19819      108.59852
C         70.74026       60.42927      107.15082
C         71.54714       60.01883      105.95759
O         71.82544       58.71599      105.76507
O         71.93507       60.83928      105.15017
H         70.37071       62.64295      105.33512
H         69.90560       62.01697      108.27634
H         69.74573       59.94227      107.05788
H         71.23291       60.01236      108.05606
N         72.23774       63.81909      107.08290
C         73.46258       64.52615      107.43269
C         74.73837       63.84052      106.96821
O         75.80324       64.36331      107.26531
H         71.62356       64.26432      106.38648
H         73.48877       64.67940      108.53515
H         73.44874       65.53033      106.95775
N         74.72940       62.68752      106.23525
C         75.95031       61.99054      105.82084
C         76.68255       62.67088      104.65329
O         77.68562       62.13525      104.20274
C         75.62426       60.51050      105.50771
C         75.00144       60.27914      104.15693
N         75.47585       59.31031      103.34330
O         74.06459       60.96259      103.79121
H         73.82639       62.24800      106.02482
H         76.61913       61.94234      106.70862
H         74.94472       60.12921      106.30204
H         76.55575       59.90818      105.56729
H         76.25971       58.70923      103.63563
H         75.04676       59.14470      102.42339
N         76.25216       63.85362      104.12275
C         76.92374       64.56070      103.04335
C         76.67367       64.02103      101.64317
O         77.20170       64.62852      100.72243
H         75.46614       64.34233      104.56103
H         78.01229       64.62049      103.25846
H         76.53633       65.60381      103.02643
N         75.87841       62.93980      101.37639
C         75.59923       62.47604      100.01021
C         74.07279       62.44939       99.70873
O         73.32755       63.02541      100.73709
C         76.13730       61.04937       99.82406
C         77.62781       60.95441      100.04957
C         78.13001       60.21875      101.13425
C         78.53082       61.58316       99.17587
C         79.50443       60.11477      101.34983
C         79.91035       61.47062       99.38657
C         80.40059       60.73549      100.47686
O         81.72561       60.61479      100.69379
H         75.44668       62.42707      102.15634
H         76.09793       63.13518       99.26653
H         75.90885       60.67818       98.80060
H         75.60065       60.39307      100.54029
H         77.46123       59.72621      101.81809
H         78.16881       62.14887       98.32668
H         79.87114       59.54606      102.19530
H         80.59672       61.95167       98.70158
H         82.38254       61.01872      100.10967
N         73.73265       63.09151       98.43353
C         72.35876       62.79899       97.96561
C         72.33255       61.54233       97.09336
O         73.01022       61.50933       96.07516
C         71.81868       64.05318       97.20438
C         71.66864       65.23250       98.20680
C         70.47671       63.77113       96.50213
C         71.22295       66.55147       97.57042
H         74.43274       62.87775       97.68503
H         71.67330       62.63955       98.82938
H         72.55083       64.32820       96.41276
H         72.64645       65.42119       98.69808
H         70.93392       64.96011       98.99785
H         70.13160       64.64683       95.91921
H         70.59208       62.96136       95.75786
H         69.69694       63.49881       97.23892
H         71.94356       66.86327       96.78595
H         70.20681       66.47531       97.13335
H         71.18089       67.33863       98.35255
N         71.50623       60.49792       97.40549
C         71.26918       59.37237       96.50222
C         70.14388       59.72072       95.54480
O         69.51999       60.75050       95.72893
C         70.92686       58.09969       97.29922
O         69.72974       58.26076       98.01920
H         70.88665       60.60115       98.21709
H         72.18874       59.18077       95.90737
H         71.76820       57.83497       97.98064
H         70.79883       57.23852       96.61022
H         69.97248       58.49171       98.95354
N         69.83890       58.93587       94.47222
C         68.78504       59.31471       93.53016
C         67.40608       59.28515       94.16703
O         66.53185       60.00639       93.70617
C         68.79577       58.42343       92.28979
H         70.40110       58.08905       94.29694
H         68.99631       60.35253       93.18374
H         69.78725       58.48683       91.79316
H         68.59135       57.36755       92.56493
H         68.02355       58.76822       91.56794
N         67.13304       58.46495       95.22126
C         65.84238       58.44452       95.90016
C         65.56600       59.80096       96.51137
O         64.51722       60.38026       96.26796
C         65.84634       57.37807       97.00660
H         67.87699       57.83925       95.56647
H         65.03668       58.17519       95.18150
H         64.86310       57.35623       97.52376
H         66.03077       56.37579       96.56496
H         66.63866       57.57938       97.75991
N         66.50340       60.36392       97.31701
C         66.35184       61.64689       97.99043
C         66.14712       62.76719       96.98249
O         65.15149       63.46998       97.08447
C         67.57586       61.90072       98.89991
C         67.65689       60.82916      100.00934
C         68.85219       61.00717      100.88407
O         68.70530       61.12833      102.21254
O         69.96865       60.97999      100.40344
H         67.38052       59.83887       97.44784
H         65.45894       61.61057       98.65161
H         67.49236       62.90284       99.37536
H         68.50283       61.87358       98.28819
H         67.73292       59.81222       99.57775
H         66.73919       60.86701      100.63100
N         67.02612       62.96697       95.96213
C         66.86839       63.98869       94.94603
H         65.97381       64.62309       95.11581
H         67.76569       64.64124       94.93526
H         66.77008       63.50393       93.95111
H         67.83696       62.34920       95.87735
Ca        72.35365       61.20241      101.67588
O         70.77365       58.62416      102.94158
H         70.39307       57.72886      102.75892
H         71.73027       58.45170      103.13034
O         73.14321       58.53152      100.77351
H         73.46272       58.71600       99.85523
H         72.72507       57.63603      100.72383

Ca 1.0



