%chk=holoCaM-CaMKII.loop2.water2.frame370.chk
%nprocshared=20
%mem=10GB
%nosave
#b3lyp/svp scf=(tight,noincore,xqc) Test 
#IOP(5/87=12) Density=Current Pop=(MK,readradii) iop(6/33=2) iop(6/42=6)

holoCaM-CaMKII.loop2.water2.frame370 

   -2  1 
C         37.29732       63.12643       51.98426
C         37.78335       63.31676       53.39735
O         38.89133       62.90917       53.71150
H         36.28717       63.56889       51.83797
H         37.99146       63.63109       51.27944
H         37.24158       62.04695       51.73744
N         36.99782       63.96169       54.29925
C         37.39530       64.28326       55.66653
C         37.62941       63.04981       56.53322
O         36.73716       62.21968       56.63727
C         36.29066       65.14991       56.29991
C         36.63988       65.56463       57.68893
O         37.67020       66.18273       57.90035
O         35.81931       65.24355       58.70700
H         36.07578       64.29274       53.97277
H         38.32166       64.89865       55.63053
H         35.32927       64.59127       56.31502
H         36.14816       66.06662       55.69080
N         38.78998       62.91985       57.24937
C         39.05616       61.82262       58.17963
C         39.29052       62.28495       59.62689
O         39.41156       61.41754       60.48102
C         40.28825       61.05042       57.69341
H         39.51509       63.64034       57.13741
H         38.19194       61.12429       58.19703
H         41.18065       61.71492       57.68541
H         40.49901       60.18360       58.35585
H         40.12132       60.67092       56.66330
N         39.42538       63.60072       59.97900
C         39.76118       64.05018       61.34169
C         38.87319       65.18171       61.86748
O         39.05719       65.57062       63.01322
C         41.23795       64.49480       61.38251
C         41.57484       65.39186       60.23488
O         40.89040       66.52280       60.00432
O         42.42749       65.04188       59.43365
H         39.39346       64.31200       59.23725
H         39.65616       63.21566       62.06842
H         41.88073       63.59182       61.29719
H         41.48057       64.98878       62.34778
N         37.90774       65.76660       61.11151
C         37.05495       66.84572       61.58164
C         37.83032       68.09724       61.93567
O         37.73163       68.53831       63.07197
H         37.74831       65.42294       60.16621
H         36.47303       66.49283       62.46189
H         36.32889       67.11089       60.78273
N         38.59571       68.74222       61.00503
C         39.29754       70.00074       61.27517
C         38.80089       71.14084       60.37132
O         39.37337       72.22074       60.41687
C         40.82974       69.79398       61.20157
C         41.40736       69.57936       59.83069
N         42.73775       69.39035       59.68241
O         40.69052       69.59108       58.84658
H         38.66938       68.33191       60.06143
H         39.11094       70.32389       62.32223
H         41.09992       68.93043       61.84939
H         41.32696       70.69702       61.61601
H         43.36396       69.37226       60.50021
H         43.14234       69.26485       58.74471
N         37.69905       70.98894       59.57566
C         37.09833       72.05049       58.77726
C         37.76887       72.35860       57.44566
O         37.21430       73.17783       56.72661
H         37.16535       70.11231       59.63025
H         36.99794       72.97264       59.39114
H         36.06915       71.72298       58.51471
N         38.93519       71.77967       57.03604
C         39.58343       72.08491       55.75525
C         39.94258       70.82024       54.97373
O         39.74837       69.72031       55.46955
C         40.85673       72.92912       56.01962
C         40.50009       74.28625       56.63027
O         41.73483       72.25376       56.88431
H         39.41605       71.14311       57.67508
H         38.90708       72.68185       55.10486
H         41.37629       73.16419       55.06370
H         42.21560       71.57687       56.34032
H         40.00406       74.16403       57.61568
H         41.42111       74.88953       56.77157
H         39.81898       74.84214       55.94958
N         40.54162       70.92517       53.74874
C         41.06776       69.79234       52.99295
C         42.56398       69.74516       53.22926
O         43.25165       70.72877       52.98946
C         40.73175       69.90317       51.47242
C         39.20056       69.83565       51.24860
C         41.44886       68.78952       50.67470
C         38.78536       70.01855       49.78376
H         40.73892       71.86622       53.37750
H         40.63505       68.83771       53.36199
H         41.10934       70.88075       51.09772
H         38.71505       70.64502       51.83346
H         38.80820       68.85980       51.61119
H         41.12183       67.78275       51.01168
H         41.27573       68.88573       49.58597
H         42.54529       68.87089       50.79344
H         39.16215       70.98753       49.39346
H         39.15944       69.19474       49.14238
H         37.67838       70.00876       49.70791
N         43.13083       68.59909       53.69393
C         44.55791       68.44011       53.94269
C         45.22581       67.93450       52.68559
O         44.53579       67.70220       51.70614
C         44.78239       67.38726       55.04762
C         43.98832       67.63890       56.28996
O         42.64716       67.70006       56.20321
O         44.53631       67.67109       57.37966
H         42.52716       67.77107       53.80099
H         44.99874       69.41182       54.25856
H         45.86181       67.31290       55.29971
H         44.44639       66.39735       54.66685
N         46.56529       67.71774       52.62551
C         47.18460       67.12817       51.44818
C         46.76157       65.65661       51.28941
O         46.24577       65.34821       50.22542
C         48.70639       67.37008       51.43776
C         49.36246       66.80406       50.20197
C         48.99368       67.24716       48.91689
C         50.36067       65.82502       50.32815
C         49.61262       66.71337       47.78313
C         50.97833       65.29686       49.19206
C         50.60467       65.73959       47.92071
H         47.15387       67.98195       53.43143
H         46.81837       67.68971       50.55836
H         49.18675       66.96728       52.34180
H         48.88812       68.46712       51.46007
H         48.23097       68.00444       48.78704
H         50.66118       65.47035       51.30615
H         49.32422       67.05631       46.79765
H         51.74762       64.54398       49.29912
H         51.08494       65.32895       47.04255
N         46.88833       64.69506       52.27363
C         46.44342       63.30194       52.12760
C         44.96738       63.08989       51.80582
O         44.57270       61.94723       51.61352
C         46.69334       62.69042       53.51228
C         47.88216       63.47373       53.99478
C         47.51430       64.89029       53.56477
H         47.07942       62.83813       51.34123
H         45.85393       62.96619       54.19530
H         46.80084       61.58449       53.51931
H         48.11344       63.36561       55.07547
H         48.76300       63.13838       53.40011
H         46.78013       65.36036       54.25086
H         48.45518       65.45611       53.54396
N         44.09331       64.12846       51.75156
C         42.67397       64.00627       51.46322
C         42.44000       64.47502       50.03991
O         41.82998       63.74409       49.27311
C         41.87571       64.81398       52.50772
C         42.11041       64.25130       53.92595
C         41.42867       65.02951       55.01326
O         41.60688       64.65517       56.29323
O         40.73933       66.00399       54.76290
H         44.43432       65.07848       51.93250
H         42.33125       62.94805       51.52272
H         40.78983       64.77124       52.27154
H         42.19960       65.87610       52.46983
H         43.19623       64.26141       54.15606
H         41.75023       63.20085       53.96955
N         42.98644       65.63971       49.59106
C         42.92648       66.08848       48.21719
H         43.95996       66.12397       47.80748
H         42.32129       65.41508       47.57724
H         42.49707       67.10955       48.18069
H         43.53017       66.21835       50.23387
Ca        41.37337       67.18722       57.93748
O         37.82488       68.86736       57.33875
H         37.03503       68.63337       57.88557
H         37.43976       69.29500       56.53476
O         37.91523       67.54184       54.47365
H         38.83952       67.53784       54.12592
H         37.35443       67.37386       53.67642

Ca 1.0



