%chk=holoCaM-CaMKII.loop3.water3.frame468.chk
%nprocshared=20
%mem=10GB
%nosave
#b3lyp/svp scf=(tight,noincore,xqc) Test 
#IOP(5/87=12) Density=Current Pop=(MK,readradii) iop(6/33=2) iop(6/42=6)

holoCaM-CaMKII.loop3.water3.frame468 

   0  1 
C         68.16651       49.62789       50.58864
C         68.09022       48.79568       49.34647
O         68.68201       49.17438       48.34513
H         67.75245       50.63644       50.38586
H         67.59459       49.16486       51.42005
H         69.22826       49.71967       50.90048
N         67.39945       47.62259       49.34375
C         67.36044       46.75140       48.18214
C         66.61894       47.42511       47.03555
O         65.43275       47.69774       47.15696
C         66.73636       45.39544       48.56913
C         66.87843       44.35360       47.50767
O         67.40314       44.61379       46.44108
O         66.44800       43.10628       47.74971
H         66.93837       47.31634       50.21474
H         68.41425       46.55057       47.88813
H         65.66370       45.51942       48.83130
H         67.27286       45.00395       49.46005
N         67.29316       47.75866       45.90039
C         66.70256       48.47403       44.77723
C         65.61910       47.62626       44.12125
O         64.47182       48.04500       44.06538
C         67.82523       48.84005       43.76529
C         67.43184       49.94051       42.77299
C         68.59371       50.22709       41.80539
C         68.33865       51.49480       40.97956
N         69.42407       51.72734       40.02581
H         68.29706       47.54805       45.86423
H         66.27906       49.42521       45.17100
H         68.18408       47.93568       43.22912
H         68.69047       49.24667       44.33552
H         67.20907       50.85634       43.36381
H         66.52750       49.65870       42.19222
H         68.72854       49.34942       41.13483
H         69.53601       50.38077       42.37708
H         68.27013       52.36411       41.67241
H         67.37759       51.40772       40.42783
H         69.25395       52.63002       39.52605
H         70.34276       51.78599       40.52293
H         69.45270       50.95273       39.32367
N         65.94422       46.41393       43.58834
C         65.01518       45.55466       42.85076
C         64.14776       44.65712       43.72503
O         63.24527       44.03167       43.18436
C         65.79614       44.67418       41.84542
C         66.86333       43.78942       42.46907
O         67.54175       43.08383       41.74412
O         67.11343       43.82103       43.80012
H         66.93788       46.15494       43.62163
H         64.33572       46.20764       42.25769
H         66.29835       45.34954       41.11906
H         65.07915       44.04398       41.27408
N         64.37352       44.49620       45.05609
C         63.57018       43.62135       45.89358
C         63.57348       42.17283       45.43439
O         62.49656       41.65083       45.18165
H         65.13844       45.01436       45.50310
H         62.52485       44.00103       45.91142
H         63.95371       43.65923       46.93547
N         64.72875       41.44458       45.35716
C         64.74346       40.00306       45.07127
C         65.22825       39.20215       46.27479
O         65.26285       37.98227       46.18694
C         65.61869       39.66164       43.84030
C         67.09751       39.74819       44.13171
N         67.89772       38.65783       44.05748
O         67.57520       40.81225       44.46084
H         65.61720       41.92069       45.56957
H         63.71268       39.66013       44.83812
H         65.35287       40.32096       42.98652
H         65.39349       38.61598       43.53823
H         67.52218       37.73650       43.79204
H         68.90215       38.73465       44.27845
N         65.64887       39.81942       47.41640
C         66.18377       39.12077       48.56297
C         67.59843       39.55176       48.89918
O         68.06776       39.09135       49.92984
H         65.59202       40.83838       47.50610
H         66.17942       38.01901       48.41986
H         65.53005       39.35154       49.43208
N         68.33801       40.42919       48.13671
C         69.67926       40.85611       48.54363
C         70.18742       42.11775       47.76989
O         70.32794       41.84991       46.39860
C         70.69355       39.65988       48.56707
C         71.07629       39.03621       47.24085
C         72.01623       39.65603       46.39715
C         70.55536       37.78421       46.86837
C         72.40657       39.05180       45.19969
C         70.94823       37.18032       45.66857
C         71.87475       37.81509       44.82915
O         72.26864       37.24414       43.67298
H         67.92896       40.84202       47.28654
H         69.58092       41.20954       49.59469
H         70.28539       38.86246       49.21501
H         71.63334       39.95139       49.08020
H         72.46465       40.60202       46.66913
H         69.84595       37.27247       47.50649
H         73.13182       39.54321       44.56309
H         70.53681       36.21704       45.39532
H         71.93424       36.38381       43.38263
N         71.50080       42.50971       48.31418
C         71.94351       43.89628       48.08670
C         73.39009       43.81022       47.63441
O         74.18596       43.18587       48.32783
C         71.86072       44.75522       49.39817
C         70.42065       44.79670       49.96884
C         72.38598       46.18627       49.13839
C         70.32742       45.47099       51.34289
H         71.64511       42.23712       49.31498
H         71.32804       44.38581       47.29765
H         72.51512       44.27873       50.16291
H         70.04377       43.76307       50.10740
H         69.75090       45.31353       49.25613
H         71.74931       46.70680       48.39125
H         72.41438       46.78718       50.06815
H         73.42890       46.16730       48.76306
H         70.61328       46.54070       51.30414
H         69.28096       45.42200       51.71017
H         70.98027       44.94368       52.07185
N         73.81654       44.44401       46.50750
C         75.19650       44.40663       46.03597
C         75.86446       45.75517       46.22344
O         75.23274       46.66255       46.74940
C         75.22454       43.96391       44.56282
O         74.62196       44.92907       43.73970
H         73.14032       45.01866       45.98310
H         75.79069       43.67015       46.62149
H         74.72953       42.97009       44.45605
H         76.26816       43.82234       44.21614
H         73.71115       44.60533       43.52580
N         77.15045       45.96372       45.84097
C         77.85173       47.23415       46.00219
C         77.15916       48.35860       45.24797
O         76.87683       49.38489       45.84413
C         79.29679       47.10714       45.51154
H         77.66450       45.17148       45.41843
H         77.89619       47.49500       47.08483
H         79.32858       46.84131       44.43329
H         79.83758       48.06582       45.66279
H         79.82180       46.31660       46.08950
N         76.84527       48.21305       43.92782
C         76.19469       49.25119       43.12714
C         74.90857       49.73108       43.77025
O         74.74102       50.93316       43.93448
C         75.89895       48.71573       41.72071
H         77.06448       47.31192       43.47863
H         76.88480       50.11718       43.01798
H         75.43168       49.50954       41.09909
H         76.84286       48.39810       41.22874
H         75.21047       47.84448       41.76662
N         73.97745       48.83919       44.20325
C         72.73425       49.21801       44.87367
C         73.02500       50.10285       46.07744
O         72.50460       51.20766       46.13569
C         71.96281       47.95298       45.31357
C         71.45751       47.13581       44.11061
C         70.84744       45.83660       44.55345
O         71.27686       44.78070       44.12219
O         69.83097       45.81924       45.42845
H         74.19561       47.83752       44.08526
H         72.09010       49.79521       44.17151
H         71.07952       48.24411       45.92481
H         72.63064       47.33135       45.94711
H         72.28524       46.90614       43.40787
H         70.70069       47.73376       43.56036
N         73.87671       49.69071       47.05526
C         74.23539       50.48787       48.20955
H         75.33039       50.67550       48.19606
H         73.71180       51.46578       48.22987
H         73.98167       49.92818       49.13371
H         74.31849       48.77314       46.97049
Ca        68.88917       42.95453       44.97455
O         69.41061       41.07965       42.06375
H         69.85614       40.19857       42.00391
H         69.79101       41.60658       41.31671
O         71.97025       42.01708       43.85697
H         71.22707       41.37006       43.94709
H         72.38038       41.80203       42.98256
O         69.71636       45.18708       41.61736
H         69.79167       44.54651       40.86620
H         68.93568       45.75160       41.38934

Ca 1.0



