%chk=holoCaM.loop1.water2.frame137.chk
%nprocshared=20
%mem=10GB
%nosave
#b3lyp/svp scf=(tight,noincore,xqc) Test 
#IOP(5/87=12) Density=Current Pop=(MK,readradii) iop(6/33=2) iop(6/42=6)

holoCaM.loop1.water2.frame137 

   0  1 
C         -1.55615       85.51796       90.75900
C         -1.07357       84.46718       89.80929
O         -1.88986       83.78261       89.21339
H         -2.66655       85.53033       90.79625
H         -1.17561       85.28176       91.77631
H         -1.18532       86.51511       90.44868
N          0.26084       84.26149       89.64088
C          0.79322       83.15914       88.85097
C          0.32334       81.84348       89.46063
O          0.53391       81.62054       90.64472
C          2.33460       83.22723       88.80457
C          2.90076       81.97511       88.20325
O          2.57310       81.59643       86.95852
O          3.61809       81.25364       88.87566
H          0.91716       84.88422       90.13787
H          0.42947       83.23811       87.80133
H          2.73593       83.32779       89.83574
H          2.65545       84.11558       88.21526
N         -0.30728       80.92218       88.67958
C         -0.84104       79.65825       89.16221
C         -0.05874       78.50626       88.55220
O          0.54483       77.74586       89.29613
C         -2.34316       79.52366       88.78950
C         -3.26855       80.62896       89.32264
C         -3.36354       80.65201       90.85172
C         -4.36132       81.71758       91.32791
N         -4.49276       81.69041       92.78422
H         -0.39366       81.12095       87.68036
H         -0.73834       79.59074       90.26677
H         -2.72230       78.54071       89.14443
H         -2.45045       79.54400       87.68439
H         -4.28636       80.43756       88.91497
H         -2.93851       81.61047       88.93425
H         -2.36863       80.86914       91.29317
H         -3.70762       79.65449       91.20157
H         -5.35925       81.52856       90.87193
H         -4.01520       82.72510       91.00539
H         -4.85641       80.75885       93.09193
H         -3.56633       81.87285       93.23367
H         -5.16817       82.43039       93.08314
N         -0.05424       78.29296       87.20238
C          0.59193       77.13820       86.57534
C          2.12811       77.17807       86.59169
O          2.73163       76.21577       86.13795
C          0.03023       76.91172       85.15315
C          0.28348       78.02469       84.17573
O          0.93938       79.14165       84.54282
O         -0.12851       77.91797       83.03193
H         -0.61061       78.92583       86.60974
H          0.27986       76.23361       87.14443
H         -1.07158       76.77174       85.23324
H          0.45724       75.97149       84.74251
N          2.82799       78.20661       87.15100
C          4.27044       78.18051       87.36037
C          5.10653       78.53488       86.14975
O          6.02512       77.79820       85.82132
H          2.31680       78.99119       87.57476
H          4.57695       77.20978       87.80913
H          4.51420       78.96115       88.10895
N          4.88737       79.70626       85.49257
C          5.75947       80.26826       84.46528
C          6.16532       81.71923       84.79593
O          6.83302       82.33393       83.97542
C          5.09988       80.12486       83.07925
C          3.70831       80.67182       82.99443
O          2.78375       79.93952       82.68503
O          3.47033       81.96684       83.23238
H          4.05532       80.24763       85.74630
H          6.70865       79.69132       84.39135
H          5.05581       79.04020       82.83590
H          5.73794       80.61138       82.31009
N          5.86754       82.30891       85.99719
C          6.32856       83.63727       86.39141
C          5.61640       84.81430       85.73827
O          5.98658       85.93454       86.05986
H          5.38782       81.76422       86.72476
H          7.42507       83.70968       86.21399
H          6.16771       83.75219       87.48573
N          4.60832       84.66639       84.82922
C          3.93348       85.79140       84.17236
C          2.39251       85.70335       84.36546
O          1.87979       84.54936       83.76746
C          4.34160       85.85195       82.67787
C          5.83834       86.16349       82.51273
O          4.00258       84.66922       81.99682
H          4.33035       83.71863       84.56370
H          4.25068       86.75272       84.63265
H          3.79538       86.68955       82.19473
H          4.67516       83.97614       82.22706
H          6.46635       85.36790       82.96791
H          6.08892       86.23694       81.43390
H          6.08284       87.13131       82.99986
N          1.67556       86.86674       83.81395
C          0.24367       86.88114       84.19901
C         -0.58312       87.07020       82.92987
O         -0.50804       88.12776       82.31957
C         -0.08188       88.00201       85.24366
C          0.82409       87.98223       86.50634
C         -1.56927       87.97411       85.64848
C          0.70686       86.73558       87.38405
H          2.15633       87.77466       84.00880
H         -0.03993       85.90283       84.65120
H          0.10935       88.98260       84.75273
H          0.57313       88.86676       87.13285
H          1.88673       88.09771       86.20954
H         -2.22489       88.10191       84.76468
H         -1.83456       87.01311       86.13351
H         -1.79347       88.80410       86.35129
H         -0.31888       86.62817       87.78952
H          0.98286       85.82182       86.82207
H          1.40056       86.83705       88.24597
N         -1.37436       86.06191       82.45808
C         -2.19532       86.17167       81.25040
C         -3.42422       87.04100       81.50260
O         -3.62083       87.50609       82.61611
C         -2.65676       84.76792       80.74114
C         -1.49056       83.82641       80.41521
O         -3.55826       84.16079       81.62932
H         -1.35136       85.16930       82.95828
H         -1.57682       86.61385       80.43762
H         -3.19634       84.89477       79.78056
H         -3.04000       83.74426       82.36127
H         -0.82363       84.28446       79.65573
H         -0.90466       83.59832       81.32622
H         -1.88761       82.87042       80.01079
N         -4.32641       87.25659       80.50542
C         -5.60396       87.94767       80.68253
C         -6.47871       87.22360       81.69859
O         -6.99307       87.86738       82.59982
C         -6.36162       88.06263       79.33508
C         -5.61656       88.97627       78.35396
O         -6.54106       86.79051       78.76427
H         -4.10808       86.87396       79.57388
H         -5.42783       88.98493       81.04899
H         -7.35525       88.52512       79.54356
H         -7.25077       86.87730       78.07616
H         -6.19607       89.06725       77.41163
H         -5.50352       89.99058       78.79286
H         -4.61048       88.57794       78.10962
N         -6.68697       85.87943       81.60662
C         -7.49817       85.11360       82.55384
C         -6.94909       85.23803       83.96809
O         -7.69752       85.62639       84.85545
C         -7.57249       83.63216       82.10904
C         -8.41768       83.49497       80.82559
C         -8.46639       82.05210       80.30407
C         -9.49542       81.86190       79.17035
N         -9.24060       82.71875       78.01030
H         -6.22472       85.37472       80.83636
H         -8.53988       85.50686       82.56185
H         -8.07116       83.02942       82.90043
H         -6.54620       83.22832       81.96046
H         -8.00795       84.14502       80.02520
H         -9.45131       83.83048       81.06215
H         -8.76474       81.37120       81.13045
H         -7.45314       81.75385       79.95560
H        -10.51693       82.06992       79.55985
H         -9.46656       80.79706       78.84890
H         -9.37255       83.72499       78.25960
H         -8.27483       82.56037       77.64356
H         -9.93169       82.48453       77.26086
N         -5.64702       84.95297       84.24961
C         -5.06705       85.06957       85.59135
C         -5.13773       86.49381       86.13231
O         -5.00076       86.66925       87.33508
C         -3.59299       84.60104       85.58808
C         -3.47858       83.10731       85.23895
C         -2.05640       82.66266       85.07489
O         -1.33294       83.17100       84.23710
O         -1.59342       81.63901       85.80136
H         -5.05361       84.64789       83.47049
H         -5.65577       84.41904       86.27678
H         -3.12773       84.76519       86.58585
H         -3.03926       85.21512       84.84258
H         -3.99762       82.88260       84.28921
H         -3.96408       82.51081       86.04155
N         -5.33221       87.56008       85.31017
C         -5.44860       88.91682       85.79415
H         -6.34268       89.00653       86.44660
H         -4.53767       89.20478       86.35831
H         -5.57018       89.61108       84.93413
H         -5.38729       87.41291       84.30028
Ca         1.80224       82.98362       85.38932
O          1.50495       82.70825       81.43729
H          1.68086       83.65934       81.22942
H          1.20966       82.31619       80.57852
O         -0.64850       80.84754       82.21539
H         -1.34090       80.32529       82.69208
H         -0.77185       80.61340       81.26124

Ca 1.0



