%chk=holoCaM-CaMKII.loop1.water2.frame267.chk
%nprocshared=20
%mem=10GB
%nosave
#b3lyp/svp scf=(tight,noincore,xqc) Test 
#IOP(5/87=12) Density=Current Pop=(MK,readradii) iop(6/33=2) iop(6/42=6)

holoCaM-CaMKII.loop1.water2.frame267 

   0  1 
C         58.04847       28.97974       38.36333
C         59.19070       29.88228       38.01043
O         59.61405       29.87408       36.86486
H         57.17062       29.23449       37.73353
H         58.34122       27.92553       38.17828
H         57.76167       29.08775       39.43054
N         59.72940       30.71355       38.94331
C         60.82403       31.62510       38.64218
C         62.09400       30.83221       38.35683
O         62.61523       30.20481       39.26929
C         61.01792       32.57486       39.83840
C         62.02756       33.65158       39.62535
O         62.62948       33.77385       38.57229
O         62.24637       34.51741       40.62156
H         59.31564       30.72159       39.88915
H         60.52624       32.23757       37.76040
H         61.31131       31.98773       40.73641
H         60.05075       33.07829       40.05680
N         62.61140       30.76454       37.09543
C         63.72294       29.87779       36.75714
C         65.09703       30.46301       37.04958
O         66.06040       29.71066       37.00064
C         63.65344       29.42171       35.27948
C         62.30780       28.78099       34.87061
C         61.78797       27.69951       35.83414
C         62.76063       26.53287       36.05252
N         62.21626       25.59861       37.03712
H         62.07514       31.20454       36.33877
H         63.63067       28.97317       37.39151
H         64.46402       28.68194       35.10566
H         63.84309       30.28414       34.60150
H         62.41446       28.36297       33.84616
H         61.52862       29.56975       34.81750
H         60.82602       27.30774       35.43841
H         61.57052       28.16968       36.81518
H         63.73492       26.90571       36.43195
H         62.94312       26.00867       35.08986
H         62.04715       26.09424       37.94389
H         61.31920       25.18993       36.68909
H         62.90575       24.83069       37.20131
N         65.28099       31.78454       37.31865
C         66.58566       32.38187       37.60517
C         66.59534       33.07918       38.97343
O         67.63195       33.61072       39.34604
C         67.01656       33.26970       36.41094
C         65.96046       34.25636       36.03325
O         65.37462       34.16616       34.96671
O         65.62182       35.20220       36.91049
H         64.46765       32.41335       37.28873
H         67.37295       31.59953       37.67697
H         67.18282       32.59863       35.53934
H         67.97739       33.78706       36.62477
N         65.51995       33.02351       39.81977
C         65.55437       33.45070       41.21225
C         65.65666       34.93980       41.48567
O         65.72154       35.27520       42.66045
H         64.66754       32.52931       39.52858
H         66.40169       32.93343       41.71288
H         64.62038       33.10415       41.70800
N         65.67507       35.89727       40.51157
C         65.82740       37.32329       40.83619
C         64.64888       37.92748       41.60198
O         64.75883       39.07175       42.02043
C         66.18244       38.13969       39.57943
C         65.15423       38.18405       38.48603
O         65.49576       38.60011       37.39058
O         63.89833       37.72445       38.62834
H         65.64238       35.60516       39.52542
H         66.72071       37.40773       41.49531
H         67.09208       37.66093       39.15225
H         66.45105       39.18299       39.84863
N         63.50964       37.22072       41.84567
C         62.40108       37.69095       42.65844
C         61.08924       37.77693       41.90284
O         60.08569       38.03364       42.55046
H         63.42843       36.27518       41.47371
H         62.60623       38.68897       43.10280
H         62.27626       36.97097       43.49576
N         61.01492       37.64988       40.54246
C         59.77312       37.85462       39.79401
C         59.54648       36.76987       38.74372
O         60.39839       35.92223       38.53474
C         59.79137       39.25792       39.13383
C         59.77310       40.38964       40.17325
O         60.88652       39.39733       38.26499
H         61.87856       37.50895       40.00701
H         58.90015       37.81621       40.48165
H         58.86752       39.39223       38.53328
H         61.70491       39.52745       38.81255
H         59.74878       41.37199       39.65641
H         58.86690       40.30481       40.81037
H         60.67273       40.35703       40.82278
N         58.36950       36.75588       38.04952
C         58.01112       35.78672       37.01649
C         57.72250       36.53631       35.72262
O         56.96897       37.49828       35.73538
C         56.77884       34.95209       37.47799
C         57.17266       34.10123       38.71626
C         56.26535       34.04470       36.33582
C         56.01152       33.32214       39.33554
H         57.66236       37.46897       38.28022
H         58.83513       35.06352       36.83308
H         55.95837       35.65134       37.75420
H         57.56935       34.76852       39.51024
H         57.97636       33.38366       38.43675
H         55.36112       33.48242       36.63996
H         55.95555       34.64935       35.45879
H         57.05115       33.32760       36.01518
H         55.20731       34.02021       39.64948
H         55.59871       32.57010       38.63420
H         56.37653       32.77345       40.22934
N         58.24716       36.08224       34.54902
C         58.00833       36.69287       33.24481
C         57.16507       35.75713       32.39717
O         56.88633       34.65133       32.82768
C         59.36666       36.96856       32.54866
C         60.21770       37.95149       33.35925
O         60.06293       35.75713       32.39499
H         58.80086       35.21911       34.56617
H         57.44023       37.64180       33.35487
H         59.17490       37.40860       31.54429
H         60.90036       35.94911       31.89818
H         61.17968       38.13827       32.83488
H         59.68572       38.91808       33.47320
H         60.44281       37.53305       34.36246
N         56.69887       36.14287       31.17621
C         55.94330       35.23176       30.31644
C         56.82373       34.08993       29.83922
O         56.31428       32.99542       29.63995
C         55.32217       35.95469       29.10130
C         54.26565       36.97511       29.54041
O         56.32611       36.58755       28.34953
H         56.88939       37.10375       30.85602
H         55.09542       34.80277       30.89835
H         54.80638       35.18362       28.47903
H         55.98407       36.66792       27.42102
H         53.46080       36.46447       30.11288
H         54.70920       37.76761       30.17761
H         53.80657       37.45062       28.64859
N         58.15618       34.28000       29.61826
C         59.04793       33.22193       29.16030
C         59.07619       32.09623       30.18045
O         58.85266       30.94722       29.82844
C         60.47499       33.78698       28.95027
C         61.36044       32.81940       28.14953
C         62.78014       33.37730       27.96441
C         63.60636       32.58722       26.93234
N         63.73650       31.16887       27.26737
H         58.55368       35.21839       29.77980
H         58.68052       32.85510       28.17562
H         60.93977       34.04129       29.92895
H         60.40593       34.72308       28.35304
H         60.89028       32.68231       27.15102
H         61.41785       31.83496       28.66055
H         63.29849       33.38969       28.94850
H         62.72287       34.42332       27.59098
H         64.61896       33.04504       26.87298
H         63.13233       32.68336       25.92996
H         64.14736       31.05514       28.22149
H         62.80635       30.69514       27.21472
H         64.36648       30.71496       26.56677
N         59.33048       32.39149       31.48551
C         59.41079       31.41056       32.56338
C         58.09626       30.65251       32.67904
O         58.10199       29.44055       32.51417
C         59.80154       32.11998       33.89087
C         61.20480       32.76895       33.77690
C         61.60489       33.58217       34.97624
O         60.93414       34.53174       35.33692
O         62.76537       33.33208       35.60183
H         59.46174       33.38462       31.71664
H         60.21581       30.67841       32.32839
H         59.81105       31.38823       34.72505
H         59.04131       32.89585       34.12466
H         61.24717       33.46113       32.91679
H         61.95948       31.97240       33.60157
N         56.92639       31.30740       32.91848
C         55.62936       30.66047       32.96132
H         54.97647       31.10237       32.17769
H         55.69209       29.56702       32.78092
H         55.15983       30.83206       33.95205
H         56.94500       32.32146       33.05712
Ca        63.59002       36.08888       37.16854
O         62.66520       38.46083       35.56877
H         61.92395       38.80167       36.12434
H         62.80965       39.16884       34.89310
O         64.34580       36.74231       33.92625
H         64.93925       36.92537       34.69763
H         64.26010       37.61623       33.46947

Ca 1.0



