%chk=holoCaM-CaMKII.loop4.water2.frame261.chk
%nprocshared=20
%mem=10GB
%nosave
#b3lyp/svp scf=(tight,noincore,xqc) Test 
#IOP(5/87=12) Density=Current Pop=(MK,readradii) iop(6/33=2) iop(6/42=6)

holoCaM-CaMKII.loop4.water2.frame261 

   -3  1 
C         81.09322       77.23326       61.97538
C         80.48487       77.07021       63.33489
O         81.06799       77.53249       64.30434
H         82.09495       76.75817       61.95658
H         80.46151       76.76514       61.19069
H         81.19135       78.31522       61.74649
N         79.28406       76.44941       63.47908
C         78.61810       76.32037       64.76529
C         79.35695       75.33518       65.65660
O         79.70001       74.25711       65.19024
C         77.17632       75.85072       64.56222
C         76.32185       76.12300       65.76074
O         75.15925       75.78171       65.72545
O         76.76016       76.85247       66.80871
H         78.80046       76.11037       62.63225
H         78.56634       77.33703       65.21760
H         77.15194       74.77464       64.28273
H         76.70826       76.43408       63.73836
N         79.59976       75.62842       66.96248
C         80.40690       74.79481       67.84794
C         79.55140       74.04979       68.87589
O         79.90224       72.91651       69.17700
C         81.52834       75.66278       68.49975
C         82.34101       76.39191       67.39186
C         82.44818       74.80397       69.38898
C         83.42309       77.33776       67.91250
H         79.22943       76.50928       67.33361
H         80.91910       74.00556       67.25088
H         81.04900       76.43199       69.14357
H         81.64928       77.02083       66.79522
H         82.80901       75.64867       66.71010
H         83.20916       75.42917       69.89698
H         81.86977       74.31047       70.19622
H         82.96191       74.02675       68.78406
H         83.89073       77.86336       67.05259
H         82.98208       78.09603       68.58989
H         84.22352       76.78647       68.44377
N         78.40584       74.57070       69.41613
C         77.58263       73.84068       70.39021
C         76.25311       73.35423       69.80359
O         75.52163       72.67431       70.51003
C         77.40834       74.65811       71.69058
C         76.61729       75.93134       71.56198
O         76.14252       76.28088       70.49482
O         76.41726       76.69129       72.65522
H         78.09085       75.49951       69.11023
H         78.10921       72.91043       70.69738
H         78.41591       74.90959       72.08832
H         76.89713       74.02204       72.44587
N         75.92316       73.56933       68.49736
C         74.81106       72.91033       67.82625
C         73.41934       73.34891       68.23569
O         72.62546       72.49985       68.61486
H         76.55671       74.11738       67.89965
H         74.91857       71.81016       67.95389
H         74.89334       73.11879       66.73811
N         73.02573       74.64458       68.08730
C         71.63680       75.10467       68.22499
C         71.11113       75.76583       66.93889
O         69.93108       76.08444       66.90609
C         71.47281       76.03557       69.45554
C         72.59821       77.01884       69.58508
O         73.33620       76.96648       70.55548
O         72.92412       77.81231       68.55863
H         73.74578       75.33003       67.82199
H         70.95803       74.23932       68.39096
H         71.48997       75.40110       70.36793
H         70.48817       76.55025       69.42681
N         71.89946       75.99312       65.84606
C         71.42907       76.56957       64.59381
C         72.01374       77.94159       64.31418
O         71.72821       78.47054       63.24768
H         72.88495       75.74304       65.87404
H         70.32384       76.67550       64.58243
H         71.70723       75.87594       63.77027
N         72.77628       78.61201       65.22877
C         73.24683       79.98216       65.03781
C         74.74892       80.08853       65.22778
O         75.37893       79.14109       65.67592
C         72.56304       80.89170       66.08170
C         71.03237       80.92172       65.93120
C         70.34835       81.69293       67.03663
N         68.99932       81.78969       67.05082
O         70.99825       82.21807       67.92995
H         72.98032       78.16836       66.13273
H         73.00185       80.34332       64.01424
H         72.94543       81.93324       66.00153
H         72.81580       80.50164       67.09238
H         70.63332       79.88632       65.96058
H         70.77255       81.37728       64.95091
H         68.43356       81.34950       66.31047
H         68.51830       82.29945       67.80682
N         75.38950       81.24301       64.89426
C         76.80646       81.49762       65.13580
C         76.92143       82.86286       65.80517
O         76.43311       83.82804       65.22992
C         77.60433       81.46219       63.80110
C         79.11177       81.64451       64.05821
C         77.39505       80.12836       63.06134
H         74.84022       81.98291       64.42710
H         77.23922       80.70673       65.78832
H         77.25083       82.28175       63.13738
H         79.67147       81.64215       63.09890
H         79.32005       82.60589       64.57113
H         79.50032       80.81290       64.68425
H         77.72716       79.27198       63.68726
H         76.32615       79.98534       62.79947
H         77.97411       80.11888       62.11302
N         77.56650       83.03430       66.99563
C         77.69478       84.33934       67.64986
C         79.12897       84.84539       67.55560
O         79.93926       84.19981       66.91091
C         77.13250       84.32133       69.09903
C         77.94191       83.57452       70.13422
N         78.00572       82.22686       70.15005
O         78.50583       84.20697       71.01459
H         78.02664       82.22095       67.42253
H         77.07843       85.09293       67.11344
H         76.08786       83.94296       69.10324
H         77.07508       85.37735       69.43717
H         77.48739       81.66512       69.46593
H         78.54371       81.74286       70.88452
N         79.50504       86.01880       68.14238
C         80.85480       86.58486       68.06322
C         81.90003       85.62733       68.61419
O         82.94959       85.46896       68.00883
C         80.91631       87.90700       68.85561
C         82.24192       88.60630       68.67040
C         82.61280       89.08739       67.40265
C         83.11563       88.78629       69.75491
C         83.83597       89.73691       67.22268
C         84.34203       89.43321       69.57144
C         84.70512       89.91197       68.30356
O         85.88220       90.54066       68.11238
H         78.79432       86.54412       68.67215
H         81.08262       86.80247       66.99652
H         80.73048       87.68542       69.93056
H         80.11517       88.59618       68.51143
H         81.95228       88.96488       66.55334
H         82.85248       88.42097       70.73977
H         84.10694       90.10507       66.24108
H         85.00852       89.56185       70.41472
H         86.51188       90.68425       68.83296
N         81.65449       84.94237       69.76107
C         82.54084       83.92885       70.32570
C         82.82541       82.82556       69.30671
O         83.97651       82.43479       69.17146
C         81.88755       83.38317       71.61810
C         82.72966       82.34384       72.36746
C         82.06385       81.98277       73.66789
O         81.86503       82.92675       74.60940
O         81.70418       80.83613       73.88056
H         80.75846       85.12578       70.23540
H         83.50634       84.39923       70.61944
H         80.89547       82.93974       71.38409
H         81.73121       84.25369       72.29580
H         83.73724       82.75362       72.59305
H         82.84416       81.43587       71.73665
N         81.83067       82.30503       68.53101
C         82.04239       81.22823       67.55798
C         82.43450       81.74173       66.17067
O         82.68224       80.92238       65.29621
C         80.75600       80.38349       67.42831
C         80.25647       79.87217       68.78715
C         78.96656       79.11881       68.66416
O         78.85051       77.90404       69.22309
O         77.99868       79.62288       68.11821
H         80.87959       82.68266       68.64881
H         82.85412       80.56284       67.92566
H         80.93187       79.52316       66.74520
H         79.96702       81.02586       66.98445
H         80.07033       80.73165       69.45385
H         81.02213       79.23016       69.26875
N         82.49342       83.06996       65.88020
C         82.82605       83.58058       64.56785
H         83.84949       83.26240       64.28082
H         82.09154       83.21613       63.81871
H         82.79083       84.69272       64.57792
H         82.28013       83.75429       66.60373
Ca        75.11964       77.64805       68.12218
O         76.67520       79.28109       70.91901
H         75.84736       79.09555       71.42861
H         77.29319       79.67747       71.58259
O         74.73704       80.70221       68.94888
H         74.48282       80.68024       69.90537
H         74.56816       81.63668       68.66920

Ca 1.0



