%chk=holoCaM.loop4.water2.frame131.chk
%nprocshared=20
%mem=10GB
%nosave
#b3lyp/svp scf=(tight,noincore,xqc) Test 
#IOP(5/87=12) Density=Current Pop=(MK,readradii) iop(6/33=2) iop(6/42=6)

holoCaM.loop4.water2.frame131 

   -3  1 
C          6.45828      116.42783      106.43830
C          5.33950      116.36363      107.43258
O          5.39452      115.52569      108.31824
H          7.20017      115.62216      106.63556
H          6.07001      116.31202      105.40641
H          6.97248      117.40653      106.53752
N          4.28065      117.22101      107.35284
C          3.21931      117.25133      108.35787
C          2.03041      118.06286      107.87203
O          2.18759      119.23909      107.57324
C          3.79788      117.79761      109.68007
C          2.83378      117.93974      110.83176
O          2.13072      116.89747      111.33233
O          2.74257      119.02560      111.38071
H          4.24172      117.87584      106.55601
H          2.86933      116.22438      108.52189
H          4.25358      118.79244      109.47650
H          4.61170      117.13025      110.02382
N          0.79665      117.47590      107.78056
C         -0.40671      118.16155      107.31513
C         -1.44811      118.32640      108.42248
O         -2.41952      119.02866      108.18516
C         -1.03406      117.41584      106.08820
C         -1.58187      116.00681      106.47507
C         -0.01747      117.34063      104.93591
C         -2.27471      115.26246      105.33122
H          0.70776      116.49080      108.05791
H         -0.13632      119.19235      106.99652
H         -1.89546      118.02217      105.72842
H         -2.33796      116.12541      107.28072
H         -0.77273      115.35399      106.85697
H          0.85816      116.72130      105.21799
H         -0.47885      116.91171      104.02304
H          0.33643      118.35910      104.67318
H         -2.69423      114.30796      105.71630
H         -3.10501      115.87059      104.91482
H         -1.55732      115.00536      104.52573
N         -1.35131      117.67678      109.62388
C         -2.37572      117.76145      110.66640
C         -1.80529      118.12563      112.04173
O         -2.57757      118.16925      112.99088
C         -3.20476      116.45471      110.68814
C         -2.46047      115.19411      111.02503
O         -1.14832      115.21060      111.30337
O         -3.06085      114.13185      111.04258
H         -0.56546      117.03706      109.78455
H         -3.11303      118.55498      110.41664
H         -3.65594      116.32021      109.68006
H         -4.03661      116.56870      111.41633
N         -0.49066      118.45061      112.22844
C          0.05867      118.88579      113.50955
C          0.16133      117.81098      114.58364
O          0.54950      118.15764      115.69045
H          0.13659      118.48677      111.41600
H         -0.56524      119.72562      113.88916
H          1.08217      119.28371      113.35354
N         -0.18827      116.51082      114.36664
C         -0.24854      115.52079      115.44285
C          1.09750      115.07770      116.02124
O          1.09664      114.65279      117.16877
C         -1.10386      114.30074      115.04173
C         -0.58527      113.50732      113.87465
O          0.51680      113.88565      113.20296
O         -1.19636      112.51662      113.51033
H         -0.53428      116.24658      113.43879
H         -0.81490      115.99619      116.27593
H         -2.12310      114.65769      114.77698
H         -1.19283      113.62401      115.91850
N          2.25935      115.07695      115.30168
C          3.54233      114.65653      115.86401
C          4.15241      113.43217      115.19512
O          5.28828      113.12256      115.52642
H          2.25073      115.39982      114.32342
H          3.46871      114.43013      116.95079
H          4.24861      115.50734      115.75789
N          3.47497      112.66664      114.28693
C          4.04978      111.49530      113.62555
C          3.95927      111.63591      112.11734
O          2.86151      111.76685      111.59331
C          3.30824      110.20070      114.01159
C          3.44984      109.83394      115.49280
C          2.86816      108.46455      115.75157
N          1.55785      108.20738      115.52845
O          3.59598      107.57118      116.15916
H          2.50353      112.90286      114.06424
H          5.11564      111.35910      113.91383
H          3.75835      109.37068      113.41965
H          2.23310      110.28022      113.73804
H          2.94416      110.58938      116.13071
H          4.53078      109.81559      115.75667
H          0.92365      108.94290      115.18604
H          1.17570      107.26445      115.69587
N          5.08073      111.55792      111.34769
C          5.03818      111.53658      109.88561
C          4.36421      110.23845      109.45307
O          4.85141      109.19389      109.86589
C          6.47561      111.61717      109.28475
C          6.41816      111.64721      107.74695
C          7.23755      112.86463      109.77270
H          5.98867      111.46074      111.82508
H          4.47811      112.42189      109.52609
H          7.05863      110.72313      109.60019
H          5.92826      110.73506      107.34773
H          5.85207      112.53744      107.39576
H          7.44436      111.69002      107.32408
H          7.37783      112.86493      110.87170
H          8.25164      112.89484      109.31992
H          6.69847      113.78916      109.49549
N          3.25613      110.20908      108.64280
C          2.57160      108.95118      108.31757
C          2.68963      108.57848      106.84375
O          3.25772      109.32714      106.06891
C          1.10674      108.98321      108.83689
C          0.06867      109.49341      107.86156
N         -0.59622      110.64926      108.05988
O         -0.21849      108.80676      106.89667
H          2.87737      111.09341      108.27488
H          3.06471      108.12829      108.87593
H          1.08527      109.54563      109.79584
H          0.78390      107.94732      109.07726
H         -0.37768      111.24804      108.85695
H         -1.32314      110.95424      107.39442
N          2.20002      107.38108      106.41903
C          2.29009      106.85338      105.05751
C          1.54653      107.67640      103.99851
O          2.19946      108.14782      103.07825
C          1.89720      105.34795      105.02037
C          0.43268      104.94894      105.20074
C         -0.18928      104.19101      104.18853
C         -0.32395      105.25932      106.35412
C         -1.51300      103.75950      104.32418
C         -1.64904      104.84051      106.47785
C         -2.24753      104.08656      105.47051
O         -3.52346      103.67862      105.61898
H          1.83650      106.77584      107.15681
H          3.37229      106.87095      104.79166
H          2.49515      104.82395      105.79682
H          2.24980      104.95858      104.03946
H          0.35398      103.91543      103.29354
H          0.06429      105.81579      107.18076
H         -1.96516      103.16880      103.53833
H         -2.20847      105.09742      107.36925
H         -3.97329      103.14197      104.95171
N          0.19331      107.86716      104.02873
C         -0.53090      108.63966      103.00813
C         -0.08126      110.09634      102.99105
O         -0.09190      110.72060      101.93986
C         -2.06021      108.56297      103.22187
C         -2.58086      107.12384      103.06333
C         -4.06711      107.04791      103.25643
O         -4.78394      106.64445      102.35437
O         -4.61500      107.39890      104.43553
H         -0.34043      107.45113      104.80087
H         -0.31444      108.20118      102.00831
H         -2.56693      109.19526      102.45844
H         -2.31838      108.95756      104.23015
H         -2.10891      106.45780      103.80898
H         -2.31923      106.75292      102.04756
N          0.35914      110.68162      104.13359
C          0.92792      112.01915      104.23702
C          2.18966      112.13331      103.39512
O          2.33370      113.10995      102.67350
C          1.22590      112.28385      105.72674
C          1.94079      113.59702      105.99707
C          2.12247      113.78932      107.46732
O          3.24389      113.87521      107.93144
O          1.05909      113.93478      108.27631
H          0.32203      110.11950      104.99033
H          0.19348      112.78811      103.90691
H          1.85184      111.46654      106.13887
H          0.25237      112.29491      106.25884
H          1.35618      114.44730      105.59267
H          2.93953      113.58245      105.50935
N          3.14092      111.16204      103.43984
C          4.38958      111.20531      102.70983
H          5.22936      111.07373      103.42496
H          4.41635      110.37287      101.97545
H          4.53253      112.16530      102.17300
H          2.96295      110.32839      104.00358
Ca         1.45230      115.08504      110.16988
O          0.08735      112.41081      110.90095
H         -0.77261      112.73576      110.53406
H         -0.11107      111.49523      111.22137
O          4.28890      114.71339      111.43003
H          4.09990      114.65632      110.46069
H          5.18445      115.13077      111.48086

Ca 1.0



