%chk=holoCaM.loop4.water3.frame487.chk
%nprocshared=20
%mem=10GB
%nosave
#b3lyp/svp scf=(tight,noincore,xqc) Test 
#IOP(5/87=12) Density=Current Pop=(MK,readradii) iop(6/33=2) iop(6/42=6)

holoCaM.loop4.water3.frame487 

   -3  1 
C         16.88562       48.95136       45.98933
C         17.03439       47.54017       45.50514
O         16.45273       47.20021       44.48679
H         17.88386       49.44007       45.99883
H         16.22081       49.53119       45.31319
H         16.46212       48.96157       47.01367
N         17.83147       46.66693       46.18476
C         18.13431       45.31037       45.72673
C         19.00359       44.60152       46.76828
O         20.10345       45.06549       47.03550
C         18.81283       45.39942       44.32903
C         19.58232       44.18836       43.90662
O         20.75229       44.31382       43.58210
O         19.09953       42.94969       44.04032
H         18.27852       47.00748       47.05106
H         17.19231       44.72818       45.62528
H         19.53799       46.24439       44.33285
H         18.04758       45.61954       43.55917
N         18.54934       43.47208       47.40401
C         19.30599       42.75562       48.43926
C         19.65640       41.31123       48.04761
O         20.41658       40.69451       48.78117
C         18.54601       42.77854       49.80861
C         17.20108       41.99976       49.75137
C         18.33626       44.22993       50.27815
C         16.49922       41.85842       51.10506
H         17.61395       43.12186       47.15849
H         20.28202       43.26602       48.59173
H         19.19843       42.27681       50.55821
H         17.39143       40.96870       49.38420
H         16.50142       42.49744       49.05431
H         17.65984       44.77650       49.58671
H         17.90193       44.26376       51.29784
H         19.30975       44.76141       50.32375
H         17.16252       41.34669       51.83400
H         16.19029       42.84251       51.51083
H         15.57856       41.24893       50.97881
N         19.13114       40.69631       46.94544
C         19.42182       39.31723       46.54748
C         20.01889       39.17611       45.14550
O         20.26783       38.05286       44.72882
C         18.17630       38.41746       46.72027
C         16.84850       38.67911       46.01960
O         16.49259       39.79067       45.32701
O         15.98346       37.83306       46.18165
H         18.46207       41.21326       46.38565
H         20.18909       38.88406       47.22633
H         17.94558       38.38472       47.80767
H         18.49062       37.38814       46.43815
N         20.31613       40.25482       44.37535
C         20.91262       40.18542       43.04592
C         20.07221       39.51149       41.96632
O         20.56525       39.42803       40.84983
H         20.19060       41.17759       44.78736
H         21.88334       39.65035       43.12158
H         21.12479       41.22143       42.69996
N         18.83232       38.98453       42.19521
C         18.08644       38.23969       41.17552
C         17.55421       39.08933       40.01456
O         16.94204       38.51460       39.12435
C         16.94661       37.41549       41.82557
C         15.87373       38.20792       42.52092
O         15.92509       39.42390       42.59027
O         14.84562       37.55547       43.09459
H         18.43737       39.03579       43.14241
H         18.77436       37.47948       40.74123
H         17.39480       36.72481       42.57274
H         16.46384       36.79190       41.04200
N         17.75635       40.43640       39.92401
C         17.28647       41.23194       38.79401
C         15.78871       41.49182       38.78489
O         15.33656       42.17735       37.87714
H         18.31151       40.92034       40.64063
H         17.61015       40.75495       37.84340
H         17.77027       42.23098       38.84368
N         14.96368       41.03441       39.76798
C         13.54307       41.35035       39.86673
C         13.28174       42.11934       41.15320
O         14.21771       42.37781       41.90242
C         12.71457       40.04876       39.82439
C         12.83899       39.34043       38.46765
C         11.98594       38.09926       38.42284
N         12.22876       37.06148       39.25679
O         11.06809       38.02712       37.61904
H         15.35608       40.45991       40.52014
H         13.21374       42.00398       39.02812
H         11.63869       40.28055       39.97201
H         13.03947       39.37878       40.65031
H         13.89454       39.06173       38.26494
H         12.50218       40.04210       37.67147
H         13.00465       37.09813       39.93349
H         11.64260       36.21436       39.22094
N         12.02305       42.52923       41.47051
C         11.69607       43.29956       42.66262
C         10.82258       42.45540       43.57027
O          9.80944       41.93187       43.12278
C         10.99764       44.62941       42.26961
C         10.65679       45.46746       43.51520
C         11.89230       45.46401       41.33889
H         11.24512       42.29316       40.83406
H         12.61933       43.57455       43.22093
H         10.05151       44.40192       41.72982
H         10.15582       46.41334       43.21929
H          9.96140       44.91924       44.18227
H         11.57792       45.71636       44.08623
H         11.37721       46.40695       41.05635
H         12.85041       45.71929       41.84024
H         12.11561       44.90907       40.40390
N         11.14322       42.33076       44.88640
C         10.36717       41.57362       45.85871
C          9.57506       42.53961       46.72267
O          9.71725       43.74194       46.56972
C         11.36429       40.71730       46.68343
C         10.78229       39.85262       47.77005
N          9.92087       38.85357       47.47642
O         11.12036       40.03643       48.93008
H         11.95221       42.86171       45.24055
H          9.63107       40.91953       45.34202
H         12.10904       41.40374       47.14570
H         11.89961       40.04035       45.99318
H          9.63800       38.67089       46.50359
H          9.54576       38.25514       48.22654
N          8.66618       42.07843       47.61707
C          7.89901       42.93721       48.51526
C          8.81046       43.69153       49.48501
O          8.64845       44.89838       49.60474
C          6.72972       42.14809       49.16829
C          7.07210       40.78242       49.72682
C          6.63358       39.62957       49.04422
C          7.81613       40.63113       50.90149
C          6.95723       38.35671       49.51422
C          8.14027       39.35279       51.37461
C          7.71631       38.21164       50.67666
O          8.03033       36.97451       51.11056
H          8.50157       41.06470       47.63964
H          7.37562       43.71805       47.91514
H          6.00945       41.98107       48.33594
H          6.19074       42.76696       49.91724
H          6.05356       39.71274       48.13302
H          8.13825       41.50295       51.44836
H          6.62327       37.48331       48.96756
H          8.72183       39.24839       52.28115
H          8.56294       36.82613       51.90436
N          9.83257       43.07785       50.15235
C         10.75168       43.79047       51.05292
C         11.64534       44.82176       50.34926
O         12.42881       45.45956       51.04071
C         11.68998       42.79515       51.78883
C         10.97026       41.78545       52.69450
C         10.17274       42.46316       53.77470
O         10.78505       43.27157       54.66111
O          8.96872       42.28171       53.85717
H          9.95626       42.06640       50.01603
H         10.15064       44.32895       51.81785
H         12.39418       43.36308       52.43714
H         12.29702       42.24003       51.03957
H         11.73076       41.13623       53.17804
H         10.32233       41.13075       52.08504
N         11.60640       45.04341       49.00478
C         12.50733       45.94895       48.30135
C         11.72550       47.14004       47.77885
O         12.03856       48.25828       48.16283
C         13.21131       45.18355       47.15934
C         14.00656       43.97357       47.69102
C         14.60431       43.12230       46.60291
O         15.26401       41.99781       46.93281
O         14.47362       43.41082       45.42566
H         10.93404       44.53329       48.43135
H         13.29345       46.33881       48.98655
H         13.89621       45.86647       46.60948
H         12.44119       44.81771       46.44817
H         13.32919       43.31435       48.27310
H         14.81720       44.32969       48.36256
N         10.68019       46.97621       46.91951
C          9.86801       48.06749       46.42087
H          8.81250       47.90420       46.72597
H         10.19446       49.05399       46.81075
H          9.91975       48.08978       45.31270
H         10.42956       46.03296       46.60517
Ca        17.26223       41.75947       44.49127
O         13.79374       40.39128       44.29858
H         14.02752       40.10142       45.21553
H         13.26179       39.64046       43.93371
O         17.12628       43.18988       41.45366
H         18.10084       43.33912       41.36851
H         16.73130       43.69663       40.70023
O         15.41216       44.81040       43.15835
H         14.73031       45.31253       43.67058
H         15.48515       45.29851       42.30095

Ca 1.0



