%chk=holoCaM.loop4.water3.frame450.chk
%nprocshared=20
%mem=10GB
%nosave
#b3lyp/svp scf=(tight,noincore,xqc) Test 
#IOP(5/87=12) Density=Current Pop=(MK,readradii) iop(6/33=2) iop(6/42=6)

holoCaM.loop4.water3.frame450 

   -3  1 
C         34.02728       65.62771       30.92295
C         34.93775       64.47680       31.19294
O         34.53326       63.57156       31.90486
H         33.07366       65.51133       31.48390
H         34.51613       66.57402       31.22569
H         33.79744       65.64601       29.83731
N         36.18908       64.44036       30.64424
C         37.07282       63.28987       30.77456
C         38.48248       63.60827       30.24528
O         38.61009       64.00926       29.09792
C         36.46412       62.13551       29.95368
C         37.11820       60.82982       30.19656
O         36.82141       59.88130       29.49076
O         37.91496       60.65673       31.26661
H         36.50253       65.24925       30.08974
H         37.13316       63.01344       31.85138
H         36.53869       62.39271       28.87578
H         35.39537       61.96960       30.19666
N         39.58246       63.44006       31.03749
C         40.96366       63.72642       30.66516
C         41.85931       62.47553       30.65301
O         43.00085       62.59829       30.23126
C         41.52949       64.85950       31.58226
C         41.64914       64.43661       33.08132
C         40.65346       66.11621       31.42781
C         42.10138       65.55588       34.02639
H         39.43913       63.11474       31.97509
H         40.98139       64.09908       29.61941
H         42.54340       65.11271       31.20098
H         42.36842       63.59394       33.16231
H         40.67466       64.08974       33.47399
H         40.43432       66.31253       30.35690
H         39.69061       65.99518       31.96999
H         41.18382       67.00627       31.82467
H         41.33381       66.35824       34.07797
H         42.21271       65.14858       35.05492
H         43.06956       65.98907       33.70378
N         41.41556       61.24813       31.06435
C         42.19255       60.00502       30.94775
C         41.48831       58.93247       30.09737
O         42.15597       58.00283       29.66282
C         42.59058       59.47440       32.34147
C         41.45442       59.24553       33.32733
O         40.15009       59.49073       33.00070
O         41.74921       58.84734       34.44114
H         40.48086       61.19776       31.47339
H         43.14499       60.21842       30.41101
H         43.28882       60.21430       32.79177
H         43.16280       58.52477       32.21639
N         40.16959       59.03205       29.76168
C         39.47547       58.15284       28.83256
C         39.00091       56.83626       29.42212
O         38.54297       56.00136       28.65469
H         39.64688       59.82807       30.10023
H         40.12821       57.98826       27.95115
H         38.58291       58.67446       28.44169
N         39.08881       56.56309       30.75511
C         38.88591       55.21736       31.30268
C         37.42966       54.82579       31.61769
O         37.22109       53.69058       32.02454
C         39.74162       55.04090       32.58304
C         39.29985       55.87796       33.73189
O         38.50301       56.76234       33.55304
O         39.78402       55.66397       34.96616
H         39.48769       57.29040       31.36300
H         39.30071       54.49296       30.56848
H         40.80275       55.29632       32.38336
H         39.67040       53.98583       32.90643
N         36.38368       55.68758       31.48499
C         35.00954       55.34522       31.85355
C         34.68907       55.46581       33.34743
O         33.60539       55.05029       33.73420
H         36.56203       56.60007       31.06264
H         34.74959       54.34586       31.44200
H         34.31969       56.06972       31.36953
N         35.52402       56.11175       34.21785
C         35.15840       56.53131       35.57121
C         35.63893       57.99012       35.89839
O         35.78428       58.78581       34.74413
C         35.73129       55.59467       36.65503
C         35.13615       54.18261       36.57490
C         35.44147       53.32457       37.78032
N         35.04171       52.03308       37.79144
O         36.02264       53.78510       38.75333
H         36.36441       56.51007       33.83103
H         34.04609       56.51203       35.65405
H         35.47260       56.02124       37.64832
H         36.84227       55.54669       36.58298
H         35.52148       53.68874       35.65891
H         34.02863       54.25036       36.51309
H         34.56186       51.63007       36.97326
H         35.21967       51.43274       38.60999
N         34.61005       58.59798       36.76979
C         34.82651       59.99663       37.16062
C         35.84629       60.10685       38.29284
O         35.72389       59.43385       39.30589
C         33.47134       60.66930       37.52695
C         33.65484       62.18477       37.69664
C         32.41844       60.43177       36.42681
H         34.30365       58.00432       37.57509
H         35.19027       60.56230       36.27400
H         33.07372       60.25574       38.48030
H         34.01443       62.64256       36.74894
H         32.68913       62.65813       37.97290
H         34.37541       62.40442       38.50466
H         32.08875       59.37144       36.42732
H         31.51733       61.06005       36.59809
H         32.83127       60.68011       35.42518
N         36.83602       61.02973       38.19053
C         37.85631       61.33199       39.17950
C         37.49206       62.65994       39.81027
O         36.53869       63.28964       39.39293
C         39.24252       61.39421       38.46265
C         40.42521       61.79557       39.30804
N         40.81160       61.04979       40.36339
O         41.06413       62.79596       39.01532
H         36.78381       61.66050       37.39866
H         37.86616       60.56027       39.97798
H         39.18035       62.12473       37.62772
H         39.47816       60.40189       38.02897
H         40.29798       60.20043       40.63294
H         41.63854       61.32749       40.90512
N         38.17994       63.11967       40.87393
C         37.91869       64.39665       41.52632
C         38.20389       65.58648       40.59589
O         37.41894       66.52488       40.61964
C         38.60519       64.41364       42.91759
C         40.05899       64.01371       42.87682
C         40.45903       62.73420       43.32118
C         41.01506       64.88896       42.36049
C         41.79520       62.34037       43.22300
C         42.35019       64.49571       42.26729
C         42.74383       63.21713       42.68742
O         44.02563       62.82022       42.56886
H         38.89552       62.49639       41.25660
H         36.83315       64.45965       41.77320
H         38.06406       63.64237       43.51350
H         38.46255       65.37728       43.45051
H         39.73396       62.02471       43.70678
H         40.71990       65.87272       42.02624
H         42.08716       61.34320       43.53374
H         43.07553       65.18318       41.85692
H         44.70286       63.39583       42.18597
N         39.24614       65.60623       39.70560
C         39.43946       66.70817       38.75007
C         38.38022       66.75108       37.64321
O         38.32544       67.74558       36.93252
C         40.80277       66.62376       38.01994
C         42.04330       66.74208       38.91333
C         42.04382       68.00162       39.73425
O         41.90396       69.09008       39.19889
O         42.21143       67.93408       41.06816
H         39.91441       64.82691       39.71339
H         39.39934       67.66336       39.31751
H         40.86024       67.45948       37.28575
H         40.86405       65.67380       37.44139
H         42.93119       66.76007       38.24413
H         42.13309       65.85854       39.57747
N         37.56104       65.69599       37.38842
C         36.65303       65.61767       36.24267
C         35.23297       65.93830       36.67360
O         34.50671       66.56263       35.91262
C         36.71445       64.19837       35.62504
C         38.13774       63.81740       35.16768
C         38.25688       62.36760       34.75157
O         38.74837       62.06048       33.69500
O         37.90193       61.37182       35.55940
H         37.64960       64.86083       37.97631
H         36.94651       66.33935       35.44668
H         36.01044       64.11287       34.76793
H         36.37886       63.49382       36.40452
H         38.84268       63.96538       36.00901
H         38.44825       64.49030       34.33628
N         34.77738       65.56180       37.89882
C         33.44039       65.82767       38.37209
H         32.70047       65.30318       37.73330
H         33.34016       65.44921       39.41337
H         33.24391       66.91950       38.37277
H         35.40700       65.08127       38.54209
Ca        37.96162       59.16503       33.83106
O         39.04384       58.64660       36.22632
H         38.82768       57.77829       35.81137
H         39.87297       58.92880       35.77524
O         35.71130       58.56025       32.17907
H         36.37986       58.67952       31.46823
H         34.83625       58.67136       31.73827
O         35.63185       61.02191       33.29443
H         34.71794       60.65179       33.38006
H         35.50638       61.99573       33.33711

Ca 1.0



