%chk=holoCaM-CaMKII.loop4.water2.frame5.chk
%nprocshared=20
%mem=10GB
%nosave
#b3lyp/svp scf=(tight,noincore,xqc) Test 
#IOP(5/87=12) Density=Current Pop=(MK,readradii) iop(6/33=2) iop(6/42=6)

holoCaM-CaMKII.loop4.water2.frame5 

   -3  1 
C         81.07927       71.47467       50.64401
C         81.80930       70.88384       51.81657
O         81.16858       70.46537       52.76806
H         80.47622       72.34255       50.98407
H         81.78522       71.83200       49.86305
H         80.41106       70.71373       50.19221
N         83.16710       70.82727       51.81453
C         83.96706       70.31965       52.92507
C         83.73317       71.16603       54.17460
O         83.82836       72.38251       54.08828
C         85.44472       70.33042       52.49714
C         86.35037       69.88255       53.59215
O         87.23362       70.62711       53.97129
O         86.19519       68.67597       54.16506
H         83.65890       71.17739       50.97633
H         83.69293       69.26008       53.13145
H         85.74167       71.35468       52.17891
H         85.57499       69.64594       51.62957
N         83.43703       70.57725       55.37530
C         83.07394       71.32836       56.58023
C         84.20927       71.37876       57.61054
O         84.28799       72.38241       58.30601
C         81.75670       70.76157       57.21890
C         80.60812       70.69093       56.17564
C         81.32788       71.60272       58.44140
C         79.29089       70.12283       56.72314
H         83.44332       69.54927       55.43029
H         82.86795       72.38555       56.29722
H         81.95894       69.72525       57.57172
H         80.92751       70.02470       55.35060
H         80.40731       71.69865       55.75317
H         81.09656       72.64500       58.13450
H         80.44177       71.16683       58.94302
H         82.11674       71.61816       59.21832
H         78.83855       70.79471       57.47955
H         78.55676       70.02328       55.89646
H         79.44628       69.12652       57.18182
N         85.11604       70.36846       57.78093
C         86.14427       70.38633       58.83702
C         87.55547       70.59945       58.30052
O         88.49582       70.55504       59.08169
C         86.04416       69.11613       59.71335
C         86.42018       67.83478       59.02041
O         86.24185       66.77035       59.59025
O         86.83826       67.83614       57.74370
H         85.07244       69.55867       57.14911
H         85.96208       71.23719       59.52826
H         84.99289       69.03546       60.07030
H         86.69835       69.22045       60.60474
N         87.77320       70.92037       56.99828
C         89.07935       71.25518       56.45878
C         89.99568       70.06670       56.28866
O         91.13781       70.13065       56.71942
H         86.96639       71.02885       56.37048
H         89.55219       72.06005       57.06264
H         88.93441       71.66927       55.44010
N         89.57592       68.97904       55.58390
C         90.45257       67.90149       55.13195
C         90.41825       67.77754       53.60175
O         91.02736       66.85861       53.07206
C         90.11712       66.57321       55.84917
C         88.74147       66.00088       55.63740
O         87.91568       66.55733       54.93658
O         88.41706       64.84365       56.24355
H         88.58797       68.94066       55.30140
H         91.50887       68.11807       55.40702
H         90.25554       66.72940       56.94069
H         90.85529       65.80715       55.52448
N         89.77639       68.70277       52.82343
C         89.75856       68.68138       51.36954
C         88.85780       67.63134       50.75285
O         88.78967       67.61178       49.53050
H         89.34629       69.52604       53.25935
H         90.79665       68.58215       50.98619
H         89.36402       69.65980       51.01540
N         88.12138       66.74872       51.48950
C         87.21883       65.77019       50.88690
C         85.79290       65.96895       51.36242
O         85.55437       66.74834       52.27653
C         87.71130       64.34257       51.19411
C         89.04303       64.06535       50.47833
C         89.54558       62.67123       50.74045
N         89.92810       62.29473       51.98237
O         89.62853       61.87723       49.81515
H         88.19130       66.76313       52.51419
H         87.18512       65.89990       49.78272
H         86.96908       63.60112       50.82591
H         87.81398       64.21431       52.29488
H         89.82358       64.78942       50.79497
H         88.87472       64.18990       49.38523
H         89.88711       62.95676       52.77066
H         90.28488       61.34246       52.15171
N         84.77582       65.32538       50.72236
C         83.36757       65.49122       51.05592
C         82.76859       64.12462       51.35859
O         82.86533       63.21481       50.54513
C         82.61193       66.21696       49.90726
C         81.13528       66.45437       50.27598
C         83.25652       67.58181       49.60660
H         85.00658       64.71740       49.91966
H         83.25748       66.14607       51.95091
H         82.65429       65.59758       48.98478
H         80.60654       66.97622       49.45046
H         80.61264       65.49532       50.44837
H         81.05274       67.07969       51.19191
H         84.30979       67.45940       49.28051
H         82.70770       68.09527       48.78823
H         83.23544       68.23290       50.50758
N         82.09323       63.94271       52.51941
C         81.41991       62.72353       52.94293
C         79.95300       62.83281       52.53239
O         79.55254       63.87795       52.03820
C         81.57666       62.67322       54.49657
C         81.13337       61.46442       55.28499
N         81.12371       61.53159       56.63816
O         80.80862       60.42590       54.73686
H         81.94968       64.77002       53.09786
H         81.89098       61.84238       52.45504
H         81.01670       63.54444       54.89924
H         82.64903       62.81953       54.75381
H         81.40110       62.39828       57.12408
H         80.82588       60.72392       57.20495
N         79.08109       61.80504       52.69781
C         77.64615       61.94805       52.49004
C         77.07628       62.94940       53.48479
O         76.32128       63.81758       53.07475
C         76.94846       60.58024       52.62264
C         75.44432       60.69612       52.51310
C         74.83779       61.28486       51.38749
C         74.63347       60.22387       53.55759
C         73.44707       61.41082       51.32046
C         73.24409       60.34060       53.48274
C         72.64593       60.93954       52.36545
O         71.30641       61.06749       52.28661
H         79.43585       60.89291       53.00033
H         77.45592       62.31048       51.45529
H         77.22287       60.11888       53.59689
H         77.32244       59.91466       51.81407
H         75.43568       61.66029       50.56716
H         75.07619       59.76378       54.43221
H         72.99204       61.87812       50.45596
H         72.63516       59.96869       54.29657
H         70.71898       60.75514       52.98959
N         77.40689       62.89846       54.80810
C         76.90287       63.86480       55.78757
C         77.38292       65.30087       55.53456
O         76.92475       66.18386       56.24733
C         77.29461       63.44860       57.22382
C         76.67375       62.10168       57.62982
C         77.02015       61.75742       59.04927
O         78.18508       61.60057       59.37904
O         76.04328       61.61069       59.96486
H         78.03421       62.14318       55.12228
H         75.79153       63.86815       55.72802
H         76.91677       64.21546       57.93691
H         78.40352       63.40622       57.31148
H         77.03152       61.28306       56.97189
H         75.56788       62.16942       57.53399
N         78.27501       65.62229       54.55002
C         78.72274       66.98527       54.26525
C         78.25277       67.46579       52.89630
O         78.43651       68.63919       52.60258
C         80.25913       67.04272       54.30861
C         80.81911       66.58426       55.65800
C         82.31323       66.53702       55.64845
O         83.00360       67.29459       56.49822
O         82.91945       65.77985       54.91324
H         78.67121       64.87602       53.97682
H         78.30213       67.68880       55.01486
H         80.61690       68.07099       54.08974
H         80.63526       66.38521       53.50620
H         80.45198       65.57162       55.91763
H         80.48243       67.28438       56.44554
N         77.65070       66.63382       52.00003
C         77.17351       67.08662       50.71376
H         76.37406       67.84346       50.85654
H         78.00803       67.52193       50.12596
H         76.74976       66.22784       50.14857
H         77.52994       65.64140       52.21188
Ca        85.20894       67.00834       56.52036
O         85.90215       63.49843       54.81764
H         86.71776       63.07421       54.44984
H         85.65996       62.93362       55.59401
O         84.27178       64.32828       57.56876
H         85.17910       64.50887       57.92243
H         83.74467       64.05777       58.36146

Ca 1.0



