%chk=holoCaM.loop4.water3.frame211.chk
%nprocshared=20
%mem=10GB
%nosave
#b3lyp/svp scf=(tight,noincore,xqc) Test 
#IOP(5/87=12) Density=Current Pop=(MK,readradii) iop(6/33=2) iop(6/42=6)

holoCaM.loop4.water3.frame211 

   -3  1 
C         23.78391       64.30480       74.45350
C         24.55658       63.11765       74.92519
O         23.92295       62.13661       75.28299
H         22.93648       64.51482       75.13908
H         24.42713       65.19844       74.34019
H         23.36240       64.04104       73.45773
N         25.92466       63.08748       74.86900
C         26.66355       61.84097       75.06429
C         28.18292       62.03028       74.97789
O         28.64872       62.75119       74.10667
C         26.25654       60.88035       73.92225
C         26.74865       59.48786       74.06321
O         26.65312       58.72693       73.11597
O         27.37351       59.07264       75.16405
H         26.42977       63.93732       74.57632
H         26.39017       61.41543       76.05084
H         26.65847       61.29750       72.97701
H         25.16256       60.78078       73.81373
N         29.01229       61.33518       75.81373
C         30.47740       61.35906       75.75212
C         31.10219       59.94630       75.62975
O         32.27005       59.87191       75.27074
C         30.98715       62.09973       77.02995
C         30.49742       63.57466       77.07115
C         32.51029       62.02912       77.23312
C         31.13495       64.50348       76.03598
H         28.57431       60.77486       76.54954
H         30.80777       61.91575       74.84996
H         30.53225       61.58931       77.90985
H         30.70905       63.99370       78.07883
H         29.40114       63.61270       76.92587
H         33.05016       62.37851       76.32904
H         32.81120       62.64887       78.10411
H         32.82042       60.98708       77.45945
H         32.22645       64.59314       76.21153
H         30.95427       64.15228       75.00143
H         30.68766       65.51462       76.13748
N         30.43480       58.80506       75.98714
C         31.04817       57.47223       76.07674
C         30.35397       56.38330       75.25070
O         30.84933       55.26389       75.25220
C         31.11082       57.02159       77.56474
C         29.79916       56.94095       78.32460
O         28.64215       57.38142       77.81014
O         29.79765       56.50988       79.46401
H         29.47377       58.89446       76.30159
H         32.09841       57.51418       75.70828
H         31.76828       57.71987       78.12417
H         31.58548       56.01641       77.60191
N         29.22729       56.60932       74.52193
C         28.55553       55.58014       73.73916
C         27.92090       54.45283       74.55044
O         27.45797       53.50861       73.92633
H         28.86033       57.55548       74.46662
H         29.29506       55.15098       73.03016
H         27.74953       56.04602       73.13243
N         27.85285       54.45857       75.91660
C         27.32922       53.32825       76.69273
C         25.86576       52.98254       76.40185
O         25.48803       51.83550       76.59683
C         27.51979       53.53167       78.21621
C         26.72747       54.65944       78.81654
O         26.34137       55.58901       78.13278
O         26.48782       54.66982       80.14058
H         28.22917       55.26670       76.42594
H         27.94319       52.44195       76.41740
H         28.58949       53.69995       78.46310
H         27.20479       52.59734       78.72704
N         24.98126       53.93293       75.99312
C         23.57174       53.69242       75.70973
C         22.63851       54.51704       76.58539
O         21.44489       54.49774       76.32105
H         25.32712       54.88721       75.87197
H         23.29920       52.61990       75.81722
H         23.39360       53.97966       74.65118
N         23.08953       55.23499       77.65683
C         22.23655       56.04754       78.52016
C         22.74981       57.47708       78.64136
O         23.87004       57.75459       78.24070
C         22.15888       55.39350       79.91735
C         21.28265       54.13085       79.87665
C         20.95069       53.58700       81.24402
N         19.97980       52.65314       81.36824
O         21.51303       54.01113       82.24370
H         24.07699       55.17607       77.90858
H         21.21268       56.12600       78.09604
H         21.66988       56.10130       80.61864
H         23.17868       55.16937       80.31155
H         21.73653       53.33367       79.24652
H         20.31507       54.42867       79.42181
H         19.47071       52.31436       80.53811
H         19.70641       52.29875       82.29639
N         21.96965       58.43363       79.23643
C         22.41539       59.80190       79.48994
C         22.87989       59.88916       80.92479
O         22.16033       59.48230       81.82653
C         21.32015       60.87586       79.19580
C         21.82701       62.28841       79.56572
C         20.91654       60.88193       77.71502
H         21.04694       58.15557       79.60565
H         23.27750       60.05105       78.83804
H         20.41385       60.67577       79.80984
H         21.05308       63.05570       79.35248
H         22.05132       62.35947       80.65003
H         22.74505       62.54193       78.99376
H         20.19618       61.70685       77.51682
H         21.80454       61.04553       77.06909
H         20.43005       59.92610       77.43594
N         24.07755       60.47404       81.19570
C         24.63655       60.62472       82.52571
C         24.60914       62.09768       82.92015
O         24.18519       62.93455       82.14170
C         26.07731       60.05131       82.48818
C         26.78655       59.98132       83.81523
N         26.41148       59.08119       84.75175
O         27.73139       60.72270       84.03719
H         24.61354       60.87534       80.41672
H         24.02359       60.06768       83.26539
H         26.67554       60.67046       81.78308
H         26.04930       59.01721       82.09250
H         25.65360       58.40988       84.56239
H         26.90816       59.03135       85.65383
N         25.00871       62.46440       84.16090
C         25.06433       63.83222       84.68031
C         26.11124       64.68530       83.93151
O         25.91989       65.88680       83.81099
C         25.39801       63.68473       86.17820
C         25.36538       64.90285       87.04974
C         24.14940       65.51872       87.39355
C         26.55995       65.36581       87.61571
C         24.13702       66.57366       88.31419
C         26.54700       66.42342       88.52187
C         25.33420       67.02417       88.88524
O         25.30915       68.02128       89.79134
H         25.26109       61.69757       84.79816
H         24.05816       64.29865       84.57718
H         26.39498       63.19817       86.24432
H         24.66737       62.97598       86.63424
H         23.21180       65.15743       86.98694
H         27.50212       64.89345       87.36703
H         23.19584       67.02622       88.60166
H         27.48016       66.75854       88.95466
H         26.11455       68.33261       90.22940
N         27.22811       64.11263       83.38294
C         28.23533       64.80739       82.55648
C         27.70282       65.24973       81.19720
O         28.41396       65.95216       80.49056
C         29.37707       63.80194       82.20660
C         30.32630       63.48988       83.36438
C         31.40057       64.53806       83.48253
O         31.11770       65.71026       83.66651
O         32.69360       64.18115       83.34927
H         27.35735       63.10719       83.54513
H         28.62643       65.69432       83.09932
H         30.00061       64.12879       81.34206
H         28.88866       62.85679       81.88401
H         30.83890       62.52809       83.14205
H         29.76143       63.36794       84.31138
N         26.54916       64.73707       80.70328
C         26.18320       64.75163       79.29323
C         24.90315       65.51234       79.03802
O         24.80310       66.15978       78.00452
C         25.97181       63.28713       78.85180
C         27.22833       62.43084       79.07282
C         27.03326       60.98581       78.73829
O         27.97377       60.21873       78.85581
O         25.84251       60.51758       78.32228
H         25.98440       64.14624       81.31326
H         26.99026       65.18643       78.65864
H         25.68626       63.25255       77.77847
H         25.13833       62.86088       79.44683
H         27.53387       62.46743       80.13397
H         28.04709       62.83222       78.45351
N         23.85444       65.43364       79.89985
C         22.57255       66.03205       79.61594
H         21.88627       65.86329       80.47279
H         22.67933       67.12285       79.44342
H         22.13692       65.54753       78.71624
H         23.95428       64.92458       80.78448
Ca        26.67037       58.08936       77.02884
O         25.05875       57.00507       74.89512
H         24.33502       56.58407       74.37085
H         25.88979       56.76045       74.42058
O         24.18127       59.26979       75.99314
H         23.35081       59.01054       75.52256
H         23.92135       60.02655       76.56977
O         26.98237       57.99867       80.04903
H         26.56473       57.14564       80.31378
H         27.88445       57.97278       80.45519

Ca 1.0



