%chk=holoCaM.loop4.water3.frame402.chk
%nprocshared=20
%mem=10GB
%nosave
#b3lyp/svp scf=(tight,noincore,xqc) Test 
#IOP(5/87=12) Density=Current Pop=(MK,readradii) iop(6/33=2) iop(6/42=6)

holoCaM.loop4.water3.frame402 

   -3  1 
C         93.88494       68.63905        6.23032
C         93.67069       68.93954        7.68172
O         92.52533       69.01863        8.09207
H         94.95667       68.44364        6.01985
H         93.29916       67.74308        5.93090
H         93.55006       69.51252        5.63472
N         94.73720       69.16957        8.50290
C         94.63312       69.45460        9.93335
C         95.91561       70.09436       10.46088
O         96.99438       69.68658       10.05363
C         94.39604       68.13585       10.68903
C         94.21666       68.33391       12.15930
O         94.97628       67.76802       12.92943
O         93.19231       69.07132       12.63927
H         95.67147       69.15765        8.07194
H         93.78869       70.14990       10.11454
H         95.27067       67.46814       10.52676
H         93.49437       67.61869       10.31298
N         95.86526       71.07915       11.40900
C         97.05300       71.66276       12.03515
C         96.97798       71.58286       13.58176
O         97.94337       71.96427       14.22754
C         97.24960       73.15632       11.58166
C         96.70164       73.41252       10.14905
C         98.74556       73.54175       11.66220
C         96.84732       74.85745        9.66485
H         94.94877       71.42941       11.69052
H         97.93802       71.08641       11.69007
H         96.65783       73.81272       12.26008
H         95.61094       73.20300       10.15542
H         97.18832       72.73290        9.41773
H         99.18244       73.34166       12.65822
H         99.32479       72.96231       10.90917
H         98.89706       74.62170       11.46348
H         96.39637       75.56235       10.39529
H         97.91277       75.11840        9.50299
H         96.32235       74.97369        8.69281
N         95.84041       71.18317       14.24380
C         95.63655       71.35049       15.68866
C         94.84845       70.21780       16.36987
O         94.73208       70.25005       17.58716
C         94.94459       72.71299       15.92559
C         93.62521       72.91350       15.23094
O         93.09965       72.02611       14.58584
O         93.02787       74.11574       15.30492
H         95.01768       70.93822       13.69303
H         96.62512       71.39929       16.19709
H         95.62334       73.50068       15.53969
H         94.78720       72.88207       17.01149
N         94.29625       69.18582       15.67292
C         93.59237       68.06188       16.27703
C         92.24291       68.39637       16.89535
O         91.73957       67.56991       17.64263
H         94.42912       69.15919       14.67151
H         94.26172       67.61218       17.04042
H         93.40381       67.28273       15.50574
N         91.58828       69.56458       16.63663
C         90.34061       69.95290       17.29658
C         89.06957       69.20069       16.87485
O         88.00438       69.53390       17.37934
C         90.12543       71.46747       17.15250
C         89.85281       72.09196       15.79776
O         89.94553       71.52120       14.57140
O         89.48464       73.25128       15.82495
H         92.03619       70.24436       16.01038
H         90.47178       69.78905       18.39144
H         90.98854       71.99982       17.60848
H         89.24088       71.71543       17.78269
N         89.08501       68.19370       15.96420
C         87.89496       67.49903       15.48293
C         86.98657       68.33968       14.59485
O         86.02707       67.78405       14.07789
H         89.98842       67.87458       15.61671
H         87.32240       67.07783       16.33613
H         88.23508       66.65005       14.84881
N         87.24626       69.65127       14.32098
C         86.49828       70.45054       13.36065
C         87.39462       70.82157       12.19770
O         88.57979       70.51538       12.20103
C         85.97163       71.76706       13.99250
C         84.88707       71.57264       15.05435
C         84.19263       72.88787       15.34831
N         84.11368       73.38046       16.60443
O         83.66945       73.50679       14.43160
H         88.05166       70.10221       14.75497
H         85.64711       69.87413       12.93639
H         85.49886       72.36044       13.18625
H         86.81033       72.37821       14.39582
H         85.32860       71.12292       15.96932
H         84.11487       70.88510       14.65215
H         84.52175       72.87271       17.40063
H         83.62029       74.26965       16.78042
N         86.86501       71.53804       11.17016
C         87.62528       72.05055       10.05400
C         87.70527       73.55386       10.17733
O         86.68402       74.21575       10.30326
C         86.97171       71.63131        8.71537
C         87.70670       72.26713        7.52610
C         86.97477       70.10624        8.57783
H         85.86350       71.77447       11.18781
H         88.65843       71.64335       10.06124
H         85.91469       71.97759        8.67353
H         87.33059       71.86516        6.56451
H         87.50411       73.35606        7.51387
H         88.80059       72.09186        7.59144
H         88.00380       69.70214        8.68627
H         86.31988       69.65320        9.35161
H         86.57542       69.81623        7.58325
N         88.91905       74.15604       10.08551
C         89.10793       75.58816       10.01762
C         89.05727       76.02474        8.56669
O         89.06082       75.18781        7.68819
C         90.48475       75.91034       10.64928
C         90.76828       77.36793       10.83930
N         89.93638       78.12759       11.58088
O         91.77566       77.86236       10.36063
H         89.73422       73.57105        9.89756
H         88.28753       76.08379       10.57803
H         91.29070       75.44008       10.04089
H         90.52074       75.46630       11.65690
H         89.09861       77.71648       12.01539
H         90.13615       79.12479       11.72632
N         88.98305       77.33431        8.24513
C         89.07680       77.85720        6.88049
C         90.48219       77.63628        6.33034
O         90.61954       77.25556        5.17626
C         88.65420       79.34539        6.82371
C         89.38196       80.22027        7.81179
C         88.86316       80.41857        9.10699
C         90.59289       80.82486        7.45818
C         89.56291       81.18337       10.03808
C         91.28330       81.60484        8.38671
C         90.77240       81.78283        9.68104
O         91.43182       82.53297       10.58373
H         88.87147       77.97281        9.03236
H         88.35387       77.33128        6.21588
H         87.56393       79.40789        7.03817
H         88.77514       79.73929        5.78960
H         87.92697       79.95921        9.40710
H         91.00168       80.68703        6.46557
H         89.16424       81.30449       11.03838
H         92.21842       82.06464        8.10018
H         92.24757       83.00005       10.35600
N         91.57244       77.80353        7.13325
C         92.94732       77.52947        6.71593
C         93.11574       76.05817        6.30726
O         94.00675       75.74459        5.53238
C         93.92098       77.86652        7.87924
C         95.38121       78.08584        7.45636
C         95.54585       79.36389        6.67682
O         95.38273       79.37907        5.46783
O         95.90494       80.49689        7.31296
H         91.40401       78.13358        8.08741
H         93.14335       78.19838        5.85317
H         93.86821       77.05092        8.63768
H         93.60430       78.80214        8.39379
H         95.80045       77.22333        6.89936
H         95.97971       78.19685        8.38716
N         92.30702       75.10069        6.84843
C         92.36163       73.66787        6.55260
C         91.55066       73.32267        5.31258
O         92.01211       72.52191        4.51228
C         91.80875       72.87634        7.75820
C         92.76583       72.96278        8.96310
C         92.21928       72.32882       10.21080
O         92.91537       72.41475       11.35320
O         91.15026       71.74778       10.21437
H         91.62536       75.40280        7.55761
H         93.40867       73.31973        6.41323
H         91.67956       71.80241        7.50140
H         90.81353       73.28390        8.01582
H         92.98637       74.02372        9.19561
H         93.72071       72.45574        8.70125
N         90.31993       73.86245        5.10085
C         89.47746       73.51424        3.97924
H         88.54102       74.11436        4.01620
H         90.00022       73.73162        3.02587
H         89.20286       72.43921        4.02905
H         89.96604       74.56589        5.74627
Ca        91.43657       70.32270       13.35308
O         90.83616       69.12653       10.67383
H         90.28720       68.46994       10.18136
H         91.72944       69.05634       10.26812
O         90.80402       73.49282       13.01331
H         91.69960       73.81910       13.26886
H         90.19234       73.97596       13.62053
O         90.66761       67.88296       13.37877
H         90.65137       67.50948       12.46962
H         91.22566       67.25840       13.90220

Ca 1.0



