%chk=holoCaM.loop2.water3.frame385.chk
%nprocshared=20
%mem=10GB
%nosave
#b3lyp/svp scf=(tight,noincore,xqc) Test 
#IOP(5/87=12) Density=Current Pop=(MK,readradii) iop(6/33=2) iop(6/42=6)

holoCaM.loop2.water3.frame385 

   -2  1 
C        107.18813       86.05946       94.99488
C        106.85582       86.97708       96.13293
O        105.68058       87.15603       96.42033
H        108.28553       85.97235       94.85049
H        106.77765       85.04912       95.20290
H        106.73677       86.45232       94.06021
N        107.84470       87.59456       96.83803
C        107.56623       88.47380       97.96440
C        106.77428       89.68767       97.50104
O        107.25086       90.41482       96.64006
C        108.87992       88.92991       98.62585
C        108.65328       89.64710       99.92650
O        107.42945       89.73269      100.47523
O        109.60498       90.08368      100.53791
H        108.82661       87.40991       96.57866
H        106.99627       87.88242       98.71378
H        109.44891       89.57586       97.92398
H        109.50652       88.04016       98.85900
N        105.54149       89.95211       98.01734
C        104.71487       91.06588       97.56337
C        105.29486       92.44209       97.88674
O        104.81879       93.40826       97.30766
C        103.30568       90.95098       98.15418
H        105.15653       89.29761       98.70899
H        104.62862       90.97482       96.45794
H        103.34331       91.02658       99.26255
H        102.64770       91.75229       97.75783
H        102.86305       89.96851       97.88132
N        106.28968       92.62106       98.80532
C        106.91578       93.91624       99.08777
C        108.42588       93.89141       98.82297
O        109.05352       94.93437       98.94525
C        106.55445       94.42264      100.50498
C        106.82678       93.45798      101.61793
O        106.19917       92.41648      101.68152
O        107.67872       93.77812      102.60595
H        106.62091       91.80485       99.33305
H        106.51808       94.69118       98.39679
H        105.46565       94.64502      100.53834
H        107.09152       95.37785      100.69510
N        109.06085       92.76905       98.37252
C        110.43669       92.73100       97.90144
C        111.52598       92.88840       98.94099
O        112.67875       92.78964       98.54283
H        108.52702       91.90539       98.23781
H        110.56881       93.49824       97.10773
H        110.60572       91.73785       97.43106
N        111.29088       93.13206      100.26289
C        112.39383       93.28700      101.21296
C        113.12124       91.97279      101.52391
O        114.11824       92.04385      102.22911
C        111.92304       94.00509      102.49837
C        111.54070       95.43972      102.20231
N        110.29679       95.90519      102.45332
O        112.38004       96.19742      101.73777
H        110.32445       93.26431      100.59308
H        113.15773       93.95690      100.75684
H        112.75329       94.04274      103.23561
H        111.08566       93.45388      102.96428
H        109.57619       95.29553      102.85628
H        110.05616       96.88670      102.24765
N        112.73446       90.75779      101.02136
C        113.51518       89.53434      101.20019
C        112.81483       88.42465      101.96917
O        113.43282       87.38321      102.13714
H        111.89631       90.69321      100.43486
H        114.46311       89.74362      101.73870
H        113.78839       89.15182      100.19286
N        111.56012       88.56001      102.48432
C        110.89940       87.54614      103.30713
C        109.64417       87.03710      102.62408
O        108.80763       87.84094      102.24789
C        110.55615       88.17044      104.68107
C        109.78512       87.20131      105.59049
O        111.75198       88.55383      105.31012
H        111.05449       89.43932      102.33021
H        111.56880       86.67822      103.49603
H        109.91851       89.06657      104.51264
H        111.50438       89.13830      106.07337
H        109.56812       87.69223      106.56262
H        108.81010       86.92420      105.13574
H        110.37758       86.28079      105.77258
N        109.40168       85.69535      102.53062
C        108.15386       85.15100      102.00700
C        107.29428       84.72079      103.18447
O        107.66123       83.80203      103.90391
C        108.42054       83.97644      101.01943
C        109.25245       84.46470       99.80699
C        107.09453       83.33785      100.55540
C        109.67672       83.33323       98.86555
H        110.07924       85.03759      102.94552
H        107.60270       85.93685      101.45024
H        109.00355       83.19847      101.56175
H        110.18500       84.94308      100.17454
H        108.67691       85.22384       99.23215
H        106.51498       82.96079      101.42026
H        106.47648       84.07275       99.99953
H        107.27231       82.45414       99.91334
H        108.80447       82.84302       98.38880
H        110.30776       83.74652       98.05169
H        110.26664       82.57350       99.42161
N        106.12876       85.37811      103.44134
C        105.20710       85.02315      104.51508
C        104.36200       83.83622      104.08274
O        104.53042       83.36953      102.97099
C        104.30243       86.23171      104.85012
C        105.10274       87.41536      105.33085
O        105.92155       87.95039      104.60073
O        104.90673       87.90210      106.57077
H        105.87711       86.17151      102.84159
H        105.78025       84.76812      105.43380
H        103.59410       85.95117      105.65764
H        103.71072       86.53109      103.95675
N        103.43061       83.28307      104.90995
C        102.60014       82.15212      104.50052
C        101.69241       82.51176      103.31699
O        101.76772       81.79237      102.32949
C        101.84617       81.55659      105.71244
C        101.02375       80.33496      105.36328
C        101.62007       79.20237      104.77573
C         99.64647       80.31051      105.64514
C        100.85029       78.07571      104.47090
C         98.88297       79.17788      105.34614
C         99.48361       78.06245      104.75780
H        103.32933       83.65869      105.86420
H        103.28549       81.34210      104.16642
H        101.20955       82.31373      106.20036
H        102.60265       81.25152      106.46782
H        102.67834       79.18444      104.55177
H         99.16328       81.16367      106.10458
H        101.31492       77.21037      104.01569
H         97.82495       79.16426      105.57329
H         98.89077       77.18681      104.52692
N        100.84209       83.59148      103.28818
C        100.03812       83.97156      102.12590
C        100.83749       84.04286      100.83536
O        100.43442       83.47393       99.83210
C         99.53957       85.38495      102.47754
C         99.39474       85.29878      103.97266
C        100.66316       84.54695      104.36617
H         99.18492       83.26347      102.02970
H        100.33920       86.14117      102.30230
H         98.63705       85.71026      101.91791
H         99.25325       86.26897      104.49530
H         98.51678       84.64559      104.17995
H        101.55068       85.21296      104.40096
H        100.47414       84.09434      105.35216
N        101.99888       84.74743      100.81848
C        102.84292       84.95408       99.64608
C        103.33188       83.63105       99.07886
O        103.31680       83.46918       97.86672
C        104.02238       85.87346      100.03168
C        103.51372       87.27529      100.45215
C        104.60176       88.16372      100.96747
O        105.86998       87.72946      101.02971
O        104.33448       89.29500      101.33953
H        102.30358       85.15452      101.71471
H        102.27000       85.48251       98.85114
H        104.71257       85.99474       99.16672
H        104.58426       85.40205      100.86711
H        102.76696       87.20552      101.26677
H        103.02747       87.76308       99.57945
N        103.72190       82.62001       99.90215
C        104.15107       81.31485       99.44461
H        105.15803       81.09406       99.85404
H        103.44284       80.54593       99.82099
H        104.19333       81.24556       98.33836
H        103.67351       82.76171      100.91306
Ca       107.18308       90.13277      102.68914
O        109.69310       91.37866      103.47552
H        109.24505       92.12565      103.94371
H        109.69997       91.64977      102.52440
O        107.70131       90.62933      105.64808
H        107.35774       89.73685      105.90124
H        107.19835       91.26224      106.21889
O        104.57486       90.84650      104.08000
H        104.18631       90.18929      104.70977
H        104.08237       91.68562      104.26123

Ca 1.0



