%chk=holoCaM.loop3.water3.frame479.chk
%nprocshared=20
%mem=10GB
%nosave
#b3lyp/svp scf=(tight,noincore,xqc) Test 
#IOP(5/87=12) Density=Current Pop=(MK,readradii) iop(6/33=2) iop(6/42=6)

holoCaM.loop3.water3.frame479 

   0  1 
C         97.76920       37.24379       67.00555
C         97.76146       36.16916       68.04326
O         98.58674       35.26791       67.98035
H         96.96732       37.98748       67.20096
H         98.74745       37.76392       67.00675
H         97.58362       36.78249       66.01390
N         96.82067       36.18790       69.02203
C         96.66468       35.11816       69.97941
C         95.78020       34.05987       69.35632
O         94.64922       34.35567       68.99855
C         96.17070       35.71371       71.30582
C         96.03313       34.69081       72.36921
O         96.13204       33.38586       72.08689
O         95.95745       35.04711       73.52879
H         96.10874       36.93391       69.01641
H         97.65251       34.65932       70.18812
H         95.22075       36.27490       71.20224
H         96.95890       36.42509       71.64539
N         96.28020       32.81108       69.12518
C         95.57933       31.79952       68.34631
C         94.24845       31.39433       68.95590
O         93.31971       31.15461       68.19792
C         96.44766       30.55218       68.08577
C         97.73804       30.87011       67.30108
C         98.51969       29.61278       66.87449
C         97.70466       28.75570       65.88786
N         98.49280       27.66334       65.32489
H         97.23094       32.59760       69.45283
H         95.36645       32.23862       67.34595
H         95.81688       29.87175       67.48343
H         96.71379       30.04382       69.03104
H         98.40375       31.50361       67.91618
H         97.48859       31.44971       66.38637
H         98.82458       29.01082       67.75865
H         99.44454       29.96049       66.36209
H         97.35970       29.41076       65.05835
H         96.81580       28.31966       66.38980
H         99.37975       28.02911       64.90981
H         98.70312       26.95183       66.06118
H         97.93092       27.21168       64.56653
N         94.07387       31.32017       70.30522
C         92.78586       31.01640       70.93542
C         92.24570       32.19667       71.74392
O         91.15835       32.07770       72.29414
C         92.88761       29.74011       71.79967
C         93.85497       29.79027       72.95079
O         94.54299       30.77278       73.17176
O         93.95580       28.71765       73.75705
H         94.88272       31.52457       70.90514
H         92.02079       30.80404       70.15670
H         93.17716       28.88873       71.14797
H         91.88344       29.52034       72.22240
N         92.92129       33.37697       71.83270
C         92.44338       34.53945       72.55862
C         92.39553       34.34910       74.05986
O         91.58413       35.00380       74.69637
H         93.80499       33.49031       71.32909
H         91.44914       34.84722       72.16714
H         93.13687       35.38643       72.37388
N         93.26568       33.51777       74.70579
C         93.24928       33.34826       76.16114
C         93.93563       34.50831       76.89018
O         94.01065       34.46424       78.11441
C         93.82356       31.96165       76.55327
C         95.32563       31.86626       76.57234
N         95.97416       31.42427       77.67554
O         95.96335       32.17038       75.58384
H         93.92445       32.96189       74.14759
H         92.18441       33.29037       76.47462
H         93.41706       31.20054       75.85122
H         93.45348       31.69623       77.56627
H         95.45545       31.14297       78.52079
H         97.00243       31.35086       77.68594
N         94.49116       35.55896       76.21570
C         95.18521       36.66943       76.84003
C         96.70058       36.54438       76.76425
O         97.36434       37.46224       77.21424
H         94.42856       35.59663       75.19208
H         94.88847       36.77644       77.90618
H         94.87441       37.60687       76.32637
N         97.31881       35.42036       76.27356
C         98.77081       35.23456       76.27994
C         99.25000       34.67804       74.88969
O         99.05331       33.29469       74.89924
C         99.11030       34.23513       77.41912
C         98.68307       34.69454       78.79813
C         97.56328       34.11131       79.41847
C         99.40523       35.67755       79.49277
C         97.16986       34.49790       80.69963
C         99.01745       36.05669       80.78637
C         97.89570       35.46777       81.39172
O         97.50618       35.82195       82.63334
H         96.74543       34.62657       75.96831
H         99.28050       36.20175       76.48110
H        100.19319       33.98854       77.43114
H         98.56473       33.29130       77.20193
H         96.98346       33.36180       78.91112
H        100.27818       36.13281       79.04369
H         96.30103       34.03788       81.15539
H         99.59070       36.80327       81.32030
H         97.97401       36.49160       83.15147
N        100.68914       34.90246       74.66688
C        101.23813       34.40741       73.37413
C        102.62565       33.86695       73.66793
O        103.48077       34.64224       74.07379
C        101.34191       35.53332       72.27253
C         99.95393       36.03321       71.81507
C        102.14320       35.05976       71.03380
C        100.01767       37.19914       70.81392
H        101.00871       35.87028       74.89470
H        100.62317       33.56949       72.97807
H        101.90121       36.38429       72.71827
H         99.37584       36.37779       72.69437
H         99.41300       35.19209       71.34502
H        101.61167       34.24942       70.49321
H        102.33583       35.89269       70.32992
H        103.15060       34.71696       71.31580
H        100.58918       38.04617       71.24810
H        100.48373       36.90262       69.85107
H         98.99360       37.54711       70.57014
N        102.93082       32.54913       73.47998
C        104.28813       32.03919       73.67797
C        105.17090       32.39398       72.49342
O        104.67123       32.88233       71.50188
C        104.27790       30.51706       73.92321
O        103.65803       29.83851       72.86933
H        102.18733       31.90079       73.17808
H        104.71622       32.50607       74.58992
H        103.71393       30.30981       74.85665
H        105.32494       30.15706       74.04401
H        103.87664       28.87698       72.97820
N        106.51337       32.17512       72.53660
C        107.40171       32.40256       71.39604
C        107.06519       31.43555       70.27253
O        106.98201       31.84715       69.12308
C        108.85661       32.23011       71.83614
H        106.91623       31.81971       73.41539
H        107.30688       33.45145       71.03428
H        109.54425       32.44388       70.99015
H        109.07486       32.95795       72.64855
H        109.04281       31.20388       72.21485
N        106.78273       30.13561       70.56293
C        106.31237       29.15473       69.58858
C        105.04419       29.64609       68.89323
O        104.94568       29.55940       67.67860
C        106.05525       27.82088       70.31323
H        106.84127       29.84483       71.55273
H        107.09404       28.96301       68.82266
H        105.68918       27.04434       69.60996
H        107.00711       27.45797       70.76130
H        105.31489       27.94014       71.13392
N        104.04271       30.19671       69.62628
C        102.77232       30.68398       69.09521
C        102.95227       31.87965       68.15810
O        102.25350       31.96234       67.15810
C        101.87322       31.07394       70.28821
C        100.39645       31.20274       69.92758
C         99.61003       31.55210       71.15171
O         98.96823       32.58535       71.18299
O         99.62415       30.74036       72.22777
H        104.19912       30.26241       70.63688
H        102.26597       29.84561       68.56765
H        102.24828       32.01061       70.75125
H        101.92514       30.26330       71.04494
H        100.02317       30.22949       69.54027
H        100.25934       31.98498       69.15391
N        103.86108       32.85578       68.44585
C        104.05308       34.07101       67.68063
H        105.09260       34.10357       67.29027
H        103.34198       34.16082       66.83520
H        103.91198       34.94578       68.35308
H        104.47277       32.73553       69.25312
Ca        97.51917       32.52793       73.49412
O         99.36352       30.78526       75.32169
H         99.98002       31.32305       75.87790
H         99.32853       29.91204       75.77792
O         96.90577       29.53111       71.52932
H         97.62949       28.90242       71.77456
H         96.26088       28.97689       71.02233
O         97.15179       29.25826       74.71857
H         96.28765       29.25801       74.24803
H         97.20132       28.36840       75.14684

Ca 1.0



