%chk=holoCaM-CaMKII.loop2.water1.frame208.chk
%nprocshared=20
%mem=10GB
%nosave
#b3lyp/svp scf=(tight,noincore,xqc) Test 
#IOP(5/87=12) Density=Current Pop=(MK,readradii) iop(6/33=2) iop(6/42=6)

holoCaM-CaMKII.loop2.water1.frame208 

   -2  1 
C         16.08805       67.50833       21.20121
C         15.08772       67.50922       22.32010
O         15.06763       66.58214       23.11581
H         16.74011       66.61082       21.24804
H         15.56652       67.53677       20.22315
H         16.73270       68.41078       21.29166
N         14.25842       68.57458       22.47207
C         13.39088       68.74629       23.62931
C         12.14761       67.86453       23.54556
O         11.44222       67.93308       22.54843
C         12.98009       70.23000       23.73562
C         12.48856       70.60996       25.10437
O         12.12429       71.75478       25.31277
O         12.54128       69.73707       26.12937
H         14.35137       69.35177       21.79862
H         13.99997       68.52277       24.53385
H         12.22309       70.47018       22.95730
H         13.87077       70.87008       23.55907
N         11.79098       67.05862       24.58620
C         10.59037       66.22402       24.60764
C          9.58334       66.65649       25.67832
O          8.51613       66.05943       25.72769
C         11.00380       64.76508       24.84446
H         12.39265       67.05670       25.41296
H         10.06462       66.28294       23.63027
H         10.11797       64.09408       24.83317
H         11.70473       64.43100       24.05067
H         11.51057       64.66109       25.82927
N          9.84572       67.65146       26.58051
C          8.93218       68.00763       27.67016
C          8.87184       69.50397       27.99554
O          8.09525       69.86179       28.87154
C          9.28040       67.18852       28.92895
C         10.69005       67.32302       29.44142
O         11.01293       66.68442       30.42954
O         11.62451       68.07170       28.82495
H         10.77782       68.07063       26.57585
H          7.89379       67.71902       27.39141
H          9.12581       66.11307       28.69502
H          8.57494       67.45708       29.74549
N          9.62396       70.44047       27.34923
C          9.54070       71.86728       27.62939
C          9.99446       72.30090       29.01628
O          9.84453       73.48176       29.29778
H         10.23092       70.15724       26.57780
H          8.48429       72.18464       27.48880
H         10.15520       72.42415       26.89149
N         10.51888       71.44695       29.94834
C         10.78138       71.88515       31.32200
C         11.87403       72.94826       31.46738
O         11.96013       73.52017       32.54618
C         11.03974       70.68965       32.26772
C         12.29082       69.89442       31.99988
N         12.61050       68.87192       32.82457
O         13.01794       70.16254       31.05717
H         10.64183       70.45315       29.71323
H          9.83484       72.34791       31.68177
H         10.17425       69.99402       32.21459
H         11.10319       71.07519       33.30828
H         12.00865       68.63234       33.62462
H         13.46355       68.32203       32.67904
N         12.74305       73.26696       30.46244
C         13.72948       74.33924       30.56637
C         15.16896       73.85566       30.53429
O         16.05454       74.69319       30.47035
H         12.70656       72.74365       29.57515
H         13.60587       74.93114       31.49987
H         13.56096       75.03180       29.71462
N         15.48164       72.53261       30.63664
C         16.84716       72.00736       30.65582
C         17.01008       70.92469       29.59380
O         16.05420       70.58792       28.91598
C         17.14627       71.42280       32.06726
C         17.25807       72.52498       33.12136
O         16.14268       70.52353       32.46245
H         14.72280       71.85507       30.75595
H         17.59286       72.80226       30.43717
H         18.13327       70.90837       32.08493
H         16.26877       69.70115       31.92614
H         16.31456       73.10294       33.20197
H         17.48404       72.07251       34.11136
H         18.08936       73.21511       32.86076
N         18.21636       70.29659       29.45257
C         18.43393       69.13356       28.59734
C         18.64037       67.95456       29.52033
O         19.46464       68.02944       30.41872
C         19.65377       69.31746       27.65266
C         19.42774       70.52881       26.71564
C         19.88041       68.01996       26.83703
C         20.61565       70.81981       25.79511
H         19.00151       70.59730       30.04644
H         17.54523       68.93512       27.95926
H         20.55990       69.50599       28.27060
H         19.26070       71.43630       27.33432
H         18.52363       70.36279       26.09105
H         20.05925       67.15185       27.50515
H         18.99535       67.79552       26.20282
H         20.77952       68.08925       26.19548
H         20.40164       71.72719       25.19319
H         21.53372       70.99562       26.39455
H         20.79353       69.98897       25.08286
N         17.90699       66.82348       29.34163
C         17.94508       65.69786       30.26224
C         18.63770       64.49946       29.65258
O         19.04094       64.54433       28.50335
C         16.50317       65.45072       30.74025
C         16.12787       66.60833       31.62796
O         15.18473       67.50833       31.30383
O         16.73442       66.76725       32.67482
H         17.27002       66.76473       28.53579
H         18.58196       65.93222       31.14260
H         16.41397       64.51839       31.33580
H         15.82300       65.36470       29.86110
N         18.92628       63.42951       30.45355
C         19.78061       62.32156       30.03739
C         19.20638       61.57865       28.84345
O         19.96511       61.38528       27.90049
C         20.08397       61.37169       31.21614
C         21.03083       60.27898       30.79026
C         20.53877       58.99130       30.52394
C         22.40266       60.54061       30.63153
C         21.40478       57.98078       30.10068
C         23.26900       59.52122       30.22352
C         22.76950       58.24344       29.95498
H         18.59128       63.44624       31.42717
H         20.76656       62.74764       29.74083
H         19.16076       60.92455       31.61212
H         20.53149       61.92937       32.06797
H         19.48164       58.77751       30.62378
H         22.80092       61.52785       30.83279
H         21.01566       56.99490       29.88358
H         24.32685       59.72187       30.11220
H         23.43875       57.45718       29.63156
N         17.91739       61.12518       28.75936
C         17.35495       60.53280       27.55406
C         17.53795       61.43855       26.34109
O         17.99531       60.98191       25.30582
C         15.85808       60.38858       27.87761
C         15.88231       60.18111       29.37127
C         16.91243       61.21701       29.80461
H         17.81639       59.53180       27.39266
H         15.32774       61.35565       27.72284
H         15.33222       59.60709       27.28915
H         14.90049       60.26477       29.88354
H         16.30240       59.16620       29.56494
H         16.49733       62.24829       29.81891
H         17.25392       60.92048       30.80647
N         17.19895       62.75869       26.43372
C         17.27280       63.71256       25.32405
C         18.69832       63.96930       24.84787
O         18.86245       64.57379       23.79639
C         16.67296       65.07031       25.75545
C         15.20181       64.95926       26.19953
C         14.66189       66.23342       26.77502
O         13.43336       66.21984       27.31981
O         15.32426       67.25914       26.80356
H         16.85418       63.08593       27.34554
H         16.67840       63.29998       24.47902
H         16.74522       65.80403       24.92435
H         17.28105       65.45387       26.60250
H         15.09274       64.20969       27.00485
H         14.56836       64.64026       25.34451
N         19.77649       63.59869       25.58717
C         21.13951       63.85519       25.18417
H         21.83602       63.48272       25.96724
H         21.35960       63.32792       24.23312
H         21.29998       64.94693       25.06159
H         19.63297       63.14833       26.48949
Ca        13.68272       67.69544       29.65654
O         15.46910       70.46618       26.16136
H         15.57516       71.10171       25.41059
H         16.11965       69.74535       25.97169

Ca 1.0



