%chk=holoCaM.loop2.water2.frame349.chk
%nprocshared=20
%mem=10GB
%nosave
#b3lyp/svp scf=(tight,noincore,xqc) Test 
#IOP(5/87=12) Density=Current Pop=(MK,readradii) iop(6/33=2) iop(6/42=6)

holoCaM.loop2.water2.frame349 

   -2  1 
C        107.86688       24.65635       91.62792
C        107.24743       24.36145       92.96724
O        106.12621       23.88552       93.03139
H        108.80273       24.06349       91.52053
H        107.18575       24.38749       90.79437
H        108.12536       25.73387       91.55763
N        107.97199       24.59641       94.08907
C        107.56571       24.24844       95.44930
C        106.37404       25.04647       95.97997
O        106.38050       26.26426       95.86795
C        108.77272       24.49139       96.37064
C        108.46427       24.12563       97.77891
O        108.57764       25.05264       98.74872
O        108.08379       22.99751       98.04220
H        108.91861       24.98684       93.94992
H        107.33858       23.15980       95.49055
H        109.07750       25.56007       96.32871
H        109.62533       23.86791       96.02659
N        105.38101       24.41548       96.69049
C        104.27675       25.11713       97.35102
C        104.21251       24.91700       98.87857
O        103.50500       25.68938       99.51035
C        102.94798       24.65510       96.74376
H        105.42195       23.39292       96.77938
H        104.37339       26.20971       97.17123
H        102.94020       24.83562       95.64843
H        102.80099       23.56719       96.92537
H        102.09572       25.20623       97.19696
N        104.81489       23.87321       99.53090
C        104.64361       23.59789      100.97319
C        105.96286       23.38739      101.73287
O        105.90553       23.19054      102.93923
C        103.70019       22.38259      101.17173
C        104.06058       21.25292      100.25996
O        105.31244       20.77846      100.23261
O        103.26736       20.89123       99.40468
H        105.33606       23.18496       98.97280
H        104.14943       24.45545      101.47984
H        102.66536       22.69891      100.91362
H        103.69074       22.05417      102.23338
N        107.17956       23.45240      101.12654
C        108.45164       23.36060      101.83803
C        108.80137       21.99084      102.40308
O        109.82270       21.89838      103.06947
H        107.20907       23.66091      100.13147
H        108.45022       24.11146      102.65699
H        109.27385       23.63057      101.13935
N        108.03966       20.88304      102.17606
C        108.34010       19.55477      102.72038
C        109.61225       18.88989      102.15661
O        109.88926       17.76413      102.54786
C        107.10995       18.62234      102.56426
C        106.70645       18.26887      101.15476
N        105.65873       17.43840      100.95449
O        107.30661       18.72363      100.19458
H        107.17994       20.99702      101.63479
H        108.47502       19.66230      103.81943
H        106.23719       19.10618      103.05640
H        107.31475       17.67346      103.10490
H        105.13301       17.05090      101.75126
H        105.37341       17.17606      100.00322
N        110.45290       19.51731      101.28058
C        111.69865       18.93981      100.78620
C        111.53720       17.92482       99.66472
O        112.55378       17.44715       99.18154
H        110.26706       20.48613      101.01197
H        112.27465       18.50799      101.63484
H        112.31229       19.76195      100.35966
N        110.31593       17.54199       99.19724
C        110.10928       16.55909       98.13621
C        109.14205       17.08433       97.08189
O        108.07013       17.55115       97.43855
C        109.53519       15.25612       98.74217
C        110.56551       14.55536       99.63113
O        108.38025       15.51424       99.50131
H        109.47892       17.92071       99.64770
H        111.06571       16.27941       97.63938
H        109.30555       14.53830       97.91798
H        107.60918       15.50690       98.87744
H        111.47613       14.31089       99.04159
H        110.85378       15.19631      100.49022
H        110.14092       13.60659      100.02141
N        109.41399       16.94117       95.75101
C        108.43311       17.23353       94.70155
C        107.16280       16.41787       94.92307
O        107.22571       15.20269       95.04139
C        109.04295       16.99944       93.27215
C        109.96991       18.20164       92.93773
C        107.95349       16.84870       92.18491
C        110.68417       18.12578       91.58757
H        110.32302       16.53679       95.47751
H        108.14273       18.30131       94.75454
H        109.61636       16.04544       93.26876
H        110.74453       18.29921       93.72732
H        109.35943       19.13202       92.93102
H        107.31184       15.96659       92.39196
H        107.32022       17.75625       92.12751
H        108.39766       16.64538       91.19058
H        109.96586       18.11538       90.74257
H        111.31069       19.03476       91.46188
H        111.33485       17.22957       91.54105
N        105.95773       17.06065       94.89089
C        104.65882       16.40223       94.95048
C        104.08124       16.34653       93.54744
O        104.71029       16.83012       92.62308
C        103.70873       17.18602       95.88177
C        104.19813       17.23641       97.29687
O        105.26408       17.76528       97.56048
O        103.44404       16.72481       98.28826
H        105.94915       18.06849       94.69388
H        104.76573       15.35421       95.30652
H        102.70522       16.71111       95.88206
H        103.59306       18.22782       95.50769
N        102.90048       15.71237       93.30335
C        102.38154       15.54435       91.95044
C        102.05603       16.87394       91.26245
O        102.64907       17.09877       90.21347
C        101.21680       14.52942       91.93500
C        100.59319       14.39886       90.56627
C        101.36684       14.03671       89.44857
C         99.22125       14.65215       90.39783
C        100.77668       13.94002       88.18567
C         98.63433       14.54554       89.13490
C         99.41151       14.19256       88.02910
H        102.40076       15.27500       94.09047
H        103.18449       15.05961       91.35073
H        100.44428       14.79399       92.67590
H        101.61215       13.54068       92.25379
H        102.42601       13.83818       89.54844
H         98.60461       14.93185       91.24331
H        101.37891       13.66998       87.32809
H         97.57665       14.73939       89.01443
H         98.95580       14.11501       87.05106
N        101.15946       17.80479       91.72350
C        100.86477       19.06034       91.03385
C        102.10505       19.84324       90.64422
O        102.15274       20.39909       89.55773
C        100.05911       19.85814       92.06654
C         99.31178       18.76169       92.78017
C        100.40231       17.70969       92.95844
H        100.24100       18.84288       90.13735
H        100.74181       20.31238       92.82151
H         99.42777       20.66214       91.62988
H         98.79665       19.06155       93.71699
H         98.55159       18.36118       92.06858
H        101.07965       17.93839       93.81095
H         99.88838       16.75078       93.11216
N        103.15895       19.89850       91.50233
C        104.38997       20.63764       91.24103
C        105.06336       20.10307       89.99194
O        105.27008       20.86345       89.05635
C        105.35073       20.52888       92.44686
C        104.70848       21.05772       93.74161
C        105.55956       20.84604       94.94887
O        106.69770       20.41732       94.87572
O        104.99986       21.06011       96.14361
H        103.07181       19.36379       92.37582
H        104.14467       21.71472       91.10188
H        106.28260       21.09999       92.23844
H        105.62163       19.46336       92.60327
H        103.77577       20.50823       93.96149
H        104.44143       22.12995       93.65165
N        105.41263       18.78910       89.90823
C        106.03442       18.18461       88.75027
H        107.00893       17.74338       89.04699
H        105.37779       17.37413       88.36869
H        106.20686       18.91441       87.93286
H        105.21630       18.17023       90.70242
Ca       105.92209       20.54040       98.10696
O        109.34489       20.70367       95.83186
H        109.33239       20.43188       94.88230
H        110.02626       21.41942       95.86949
O        109.66952       20.88421       98.66141
H        110.48731       20.49292       98.26646
H        109.98263       21.72331       99.08495

Ca 1.0



