%chk=holoCaM-CaMKII.loop2.water2.frame401.chk
%nprocshared=20
%mem=10GB
%nosave
#b3lyp/svp scf=(tight,noincore,xqc) Test 
#IOP(5/87=12) Density=Current Pop=(MK,readradii) iop(6/33=2) iop(6/42=6)

holoCaM-CaMKII.loop2.water2.frame401 

   -2  1 
C         64.66501       70.12519       63.14046
C         65.06750       68.96853       62.26974
O         65.12640       67.84891       62.75722
H         63.65230       69.94213       63.55702
H         65.38916       70.24137       63.97275
H         64.63596       71.07553       62.56502
N         65.34649       69.16889       60.95318
C         65.69557       68.09492       60.03309
C         66.99724       67.41046       60.42648
O         68.01540       68.07670       60.54999
C         65.81558       68.65403       58.60319
C         66.09769       67.55745       57.62387
O         65.23981       66.52874       57.51670
O         67.10697       67.58350       56.93895
H         65.27175       70.12875       60.58093
H         64.86147       67.35633       60.02765
H         66.61830       69.42243       58.55753
H         64.85557       69.13265       58.31420
N         67.02960       66.05534       60.57148
C         68.23049       65.28327       60.86923
C         68.58970       64.32242       59.73451
O         69.56829       63.60172       59.87584
C         67.97997       64.48374       62.15261
H         66.15428       65.53252       60.43623
H         69.10084       65.95490       61.03231
H         67.72796       65.17069       62.98747
H         67.13133       63.77859       62.00612
H         68.88060       63.89886       62.43614
N         67.83513       64.23229       58.59938
C         68.05596       63.25578       57.54011
C         68.28273       63.92777       56.18552
O         69.32217       63.68435       55.58729
C         66.89787       62.21453       57.53994
C         65.50432       62.74042       57.85703
O         64.90196       63.66467       57.08711
O         64.91915       62.31802       58.84049
H         67.01883       64.84402       58.48734
H         68.97987       62.66038       57.72785
H         67.13261       61.49018       58.35289
H         66.91008       61.63771       56.58969
N         67.36142       64.75984       55.62811
C         67.48263       65.36407       54.30936
C         66.36466       64.91939       53.37748
O         66.30498       65.42340       52.26509
H         66.51535       64.98255       56.15115
H         68.45224       65.11430       53.82715
H         67.43713       66.46729       54.42934
N         65.46419       63.95671       53.74129
C         64.41511       63.43773       52.86361
C         63.26639       64.42004       52.59261
O         62.33638       64.02648       51.90151
C         63.89446       62.07944       53.41483
C         63.18786       62.13687       54.74294
N         62.75489       61.00534       55.34007
O         63.00429       63.20281       55.29166
H         65.58192       63.49650       54.65209
H         64.88096       63.18197       51.88674
H         64.76959       61.40279       53.52754
H         63.20181       61.62177       52.67756
H         62.90649       60.08635       54.90255
H         62.27281       61.05084       56.24917
N         63.26106       65.70949       53.04985
C         62.20178       66.65521       52.72030
C         60.93382       66.48653       53.53535
O         59.99573       67.22617       53.27261
H         64.06560       66.07558       53.57305
H         61.98187       66.59625       51.63053
H         62.55924       67.68728       52.92384
N         60.81789       65.56215       54.53496
C         59.61635       65.40938       55.35027
C         59.95926       65.28889       56.86417
O         61.04108       66.10911       57.21029
C         58.81466       64.16604       54.88569
C         58.30429       64.30891       53.44421
O         59.56917       62.98859       55.03821
H         61.60098       64.93662       54.72404
H         58.96779       66.30558       55.22114
H         57.90460       64.05969       55.50899
H         60.29007       62.99691       54.35610
H         57.69427       63.42178       53.17334
H         57.66456       65.21368       53.35574
H         59.14514       64.39255       52.72450
N         58.78427       65.68361       57.65893
C         58.92540       65.51245       59.11348
C         58.73917       64.04520       59.48647
O         57.72272       63.46609       59.12658
C         57.87471       66.40657       59.84743
C         57.91285       67.86421       59.30931
C         58.13038       66.37883       61.36825
C         56.86858       68.78840       59.94216
H         57.89636       65.24323       57.32922
H         59.92644       65.87701       59.43545
H         56.85742       66.00216       59.64585
H         57.69479       67.84977       58.21972
H         58.92220       68.30471       59.45525
H         57.35758       66.94509       61.92431
H         58.08999       65.34401       61.75242
H         59.12772       66.81083       61.60254
H         55.84884       68.36678       59.81434
H         57.07041       68.95149       61.01979
H         56.90564       69.78065       59.44497
N         59.65252       63.40363       60.26608
C         59.48585       62.02933       60.73718
C         59.00677       62.05676       62.17379
O         58.82439       63.14019       62.70373
C         60.81495       61.26194       60.60728
C         61.27687       61.17758       59.18006
O         61.55622       62.29812       58.48821
O         61.41822       60.08944       58.64582
H         60.44999       63.94327       60.62957
H         58.69975       61.50108       60.15324
H         60.68717       60.23114       61.00242
H         61.60156       61.76683       61.21024
N         58.71554       60.91739       62.86449
C         58.18964       60.97603       64.22389
C         59.20397       61.60179       65.18694
O         58.81162       62.52846       65.88165
C         57.67518       59.60772       64.72922
C         56.85245       59.78042       65.98636
C         55.61303       60.44697       65.92927
C         57.30628       59.28556       67.21982
C         54.84575       60.61601       67.08397
C         56.53775       59.46478       68.37553
C         55.30886       60.12798       68.30731
H         58.81818       60.00254       62.39906
H         57.28661       61.62676       64.18324
H         58.50553       58.90694       64.91146
H         57.02012       59.13718       63.96389
H         55.23572       60.82976       64.98879
H         58.25777       58.77401       67.28990
H         53.89227       61.12617       67.02904
H         56.89512       59.09039       69.32556
H         54.71454       60.26365       69.20154
N         60.52292       61.20519       65.27537
C         61.50468       61.80235       66.18844
C         61.77999       63.29166       65.99476
O         62.57553       63.84092       66.74456
C         62.80294       61.04377       65.87824
C         62.28937       59.70116       65.42263
C         61.12499       60.11574       64.53244
H         61.15409       61.60015       67.22498
H         63.29221       61.49749       64.98311
H         63.54051       61.02910       66.70889
H         63.04328       59.05691       64.92297
H         61.88471       59.16737       66.31303
H         61.48304       60.50899       63.55559
H         60.48586       59.23538       64.37171
N         61.18150       63.99933       65.00053
C         61.41426       65.40316       64.71137
C         60.19762       66.18807       65.15953
O         60.35082       67.13076       65.92328
C         61.68977       65.56733       63.20067
C         62.92382       64.75220       62.76638
C         63.19713       64.80858       61.29118
O         64.21549       64.08937       60.79266
O         62.50495       65.47031       60.53590
H         60.52567       63.52412       64.37877
H         62.29673       65.79260       65.26772
H         61.85131       66.64108       62.96057
H         60.80529       65.21114       62.62989
H         62.77035       63.68202       63.02146
H         63.82186       65.12128       63.30680
N         58.94420       65.81026       64.78489
C         57.75349       66.46774       65.27072
H         56.85258       65.94194       64.88620
H         57.72918       66.42932       66.38134
H         57.73305       67.52136       64.92703
H         58.81786       64.99942       64.17205
Ca        62.90602       64.75579       57.45705
O         63.19023       67.45127       55.72362
H         64.03067       67.87743       55.42100
H         63.10075       67.72057       56.67123
O         61.69441       68.42051       58.93800
H         61.87395       67.73541       59.62776
H         62.45365       69.04997       59.01509

Ca 1.0



