%chk=holoCaM-CaMKII.loop4.water1.frame429.chk
%nprocshared=20
%mem=10GB
%nosave
#b3lyp/svp scf=(tight,noincore,xqc) Test 
#IOP(5/87=12) Density=Current Pop=(MK,readradii) iop(6/33=2) iop(6/42=6)

holoCaM-CaMKII.loop4.water1.frame429 

   -3  1 
C         62.50878       83.28975       30.72242
C         61.08724       83.27296       31.19792
O         60.20459       82.91288       30.43685
H         63.12090       82.61452       31.35645
H         62.57805       82.95326       29.66620
H         62.91079       84.32243       30.79597
N         60.79802       83.65626       32.46938
C         59.44941       83.68070       33.02553
C         58.55819       84.65448       32.26443
O         58.93081       85.80667       32.09466
C         59.52023       84.04578       34.51793
C         58.16335       84.12590       35.14886
O         57.78483       85.27125       35.73734
O         57.40234       83.17152       35.12998
H         61.58718       83.93576       33.07364
H         59.01998       82.65913       32.97142
H         60.03002       85.02550       34.64273
H         60.11471       83.27052       35.04979
N         57.33817       84.24326       31.81220
C         56.41622       85.06992       31.03954
C         55.17814       85.38135       31.87948
O         54.83680       86.54957       32.00281
C         56.06803       84.36735       29.68532
C         57.37426       84.03325       28.91178
C         55.14210       85.26343       28.83959
C         57.17690       83.36956       27.54505
H         57.04139       83.28433       32.03085
H         56.89326       86.04238       30.78152
H         55.53207       83.41370       29.89120
H         57.96181       83.32429       29.52559
H         57.97701       84.95568       28.76397
H         54.20273       85.48712       29.38521
H         55.64925       86.21893       28.58613
H         54.84325       84.75507       27.90027
H         56.56922       82.44725       27.62853
H         56.69060       84.06012       26.82771
H         58.17041       83.10075       27.12540
N         54.46923       84.39545       32.50582
C         53.25537       84.64295       33.29628
C         53.48045       85.52025       34.53491
O         52.49938       85.85690       35.18436
C         52.65823       83.30889       33.79347
C         52.40718       82.31768       32.68380
O         51.61418       82.57861       31.79465
O         53.07785       81.14498       32.66252
H         54.79248       83.42574       32.39118
H         52.51573       85.14349       32.63354
H         51.71069       83.48196       34.34884
H         53.38901       82.89347       34.50550
N         54.72048       85.90791       34.94759
C         54.95186       86.71590       36.13553
C         54.58611       85.98584       37.41256
O         53.83857       86.52611       38.21453
H         55.55094       85.62698       34.41094
H         54.41278       87.68487       36.05286
H         56.03360       86.95326       36.19675
N         55.10801       84.75285       37.66922
C         54.90681       84.00259       38.91116
C         56.22911       83.61663       39.57279
O         56.19293       82.94654       40.59626
C         54.09131       82.72534       38.63751
C         54.64480       81.89029       37.52039
O         53.81781       81.57893       36.51763
O         55.80405       81.51624       37.50357
H         55.68236       84.31572       36.93409
H         54.33384       84.60283       39.65161
H         53.05411       83.01609       38.36007
H         54.02265       82.11479       39.56316
N         57.43220       83.98779       39.05746
C         58.70097       83.57333       39.62257
C         58.95290       82.09234       39.43774
O         59.30161       81.42417       40.39944
H         57.47638       84.59915       38.23287
H         58.77461       83.87767       40.68957
H         59.50959       84.09583       39.06670
N         58.87158       81.54457       38.19115
C         59.34400       80.20214       37.83086
C         59.29534       79.98061       36.32518
O         58.65532       80.73695       35.60734
C         58.69017       79.02818       38.62773
C         57.15414       78.87927       38.61831
C         56.50402       78.42818       37.32778
N         55.16363       78.24399       37.28849
O         57.16609       78.19527       36.32993
H         58.55457       82.17589       37.44103
H         60.42728       80.18757       38.08443
H         58.97100       79.15563       39.69161
H         59.14493       78.06357       38.31451
H         56.70205       79.82378       38.97521
H         56.90191       78.09690       39.36752
H         54.58370       78.41471       38.12323
H         54.70309       77.92121       36.42494
N         60.00602       78.96045       35.77230
C         60.06303       78.70021       34.33933
C         59.56947       77.29061       34.09664
O         60.11085       76.37115       34.69742
C         61.51470       78.88630       33.81572
C         61.58010       78.69354       32.28911
C         62.05451       80.28496       34.16067
H         60.56399       78.35397       36.39410
H         59.42610       79.41733       33.78055
H         62.17851       78.13579       34.29960
H         61.23573       77.68016       31.99887
H         60.94588       79.44690       31.77306
H         62.62460       78.81073       31.92976
H         63.09477       80.39733       33.78662
H         61.42271       81.07613       33.70339
H         62.07835       80.43794       35.26001
N         58.57142       77.03853       33.20164
C         58.09421       75.68826       32.92023
C         58.62837       75.21026       31.58082
O         59.38186       75.92871       30.94114
C         56.54864       75.57315       33.04828
C         55.73899       76.04215       31.85594
N         55.67036       77.34043       31.49672
O         55.10166       75.21742       31.21674
H         58.19527       77.82415       32.65741
H         58.50219       74.98922       33.68210
H         56.19833       76.06539       33.98115
H         56.31796       74.49217       33.16804
H         56.15257       78.06840       32.03359
H         55.09206       77.61943       30.68998
N         58.27039       73.99066       31.09876
C         58.72994       73.43139       29.82977
C         58.51758       74.38994       28.66953
O         59.46667       74.65456       27.94526
C         57.95920       72.11868       29.56385
C         58.20901       71.56173       28.18454
C         59.48253       71.11655       27.79799
C         57.15013       71.50849       27.26202
C         59.68977       70.62310       26.50497
C         57.35996       71.02118       25.97302
C         58.63137       70.57508       25.58905
O         58.84560       70.10199       24.34535
H         57.61151       73.43210       31.66143
H         59.81918       73.21027       29.89308
H         56.87335       72.33979       29.66703
H         58.21407       71.36130       30.33628
H         60.31115       71.15291       28.49417
H         56.16114       71.85563       27.53592
H         60.67430       70.28073       26.21336
H         56.53290       70.99457       25.27487
H         58.13790       70.05629       23.68625
N         57.29072       74.91002       28.41067
C         57.01399       75.77101       27.26523
C         57.85744       77.03425       27.31025
O         58.53144       77.32749       26.33224
C         55.51176       76.11914       27.19415
C         54.65151       74.85643       26.96591
C         53.18266       75.14717       26.82362
O         52.74910       76.28652       26.89569
O         52.32973       74.12700       26.61107
H         56.52525       74.66709       29.05450
H         57.26040       75.22409       26.32643
H         55.35110       76.80450       26.33218
H         55.19289       76.63946       28.12436
H         54.76931       74.14857       27.81144
H         54.99192       74.34902       26.03728
N         57.88518       77.81962       28.42288
C         58.66164       79.06007       28.50885
C         60.15580       78.84457       28.31175
O         60.84710       79.81306       28.02552
C         58.44659       79.72922       29.87854
C         57.00009       80.20325       30.06228
C         56.72259       80.68332       31.45377
O         55.61126       81.09640       31.72677
O         57.66177       80.63449       32.41598
H         57.32610       77.51539       29.23329
H         58.31200       79.74299       27.70169
H         59.11043       80.61245       29.99182
H         58.71766       78.98845       30.66207
H         56.28613       79.38955       29.84654
H         56.79945       81.02178       29.34799
N         60.73543       77.62562       28.47585
C         62.14990       77.40666       28.27478
H         62.73941       78.06240       28.94986
H         62.40156       76.34750       28.49660
H         62.41548       77.62064       27.21783
H         60.16559       76.82726       28.76934
Ca        54.21171       80.62145       34.53941
O         53.92710       77.97884       33.68065
H         53.14948       78.37179       33.21057
H         53.54638       77.26398       34.24750

Ca 1.0



