%chk=holoCaM.loop4.water3.frame276.chk
%nprocshared=20
%mem=10GB
%nosave
#b3lyp/svp scf=(tight,noincore,xqc) Test 
#IOP(5/87=12) Density=Current Pop=(MK,readradii) iop(6/33=2) iop(6/42=6)

holoCaM.loop4.water3.frame276 

   -3  1 
C         38.83933      -19.43985       67.92771
C         39.06027      -20.12781       66.61218
O         39.76688      -19.57247       65.78529
H         38.35140      -18.45661       67.76737
H         38.21506      -20.05217       68.61012
H         39.82536      -19.27364       68.41572
N         38.54552      -21.37096       66.37120
C         38.90331      -22.14705       65.18945
C         37.71457      -22.92648       64.61791
O         37.11585      -23.69604       65.35593
C         39.98663      -23.15399       65.62030
C         40.62678      -23.85771       64.46384
O         41.49347      -24.86029       64.69465
O         40.41368      -23.49466       63.31995
H         38.02072      -21.84017       67.12471
H         39.34578      -21.48180       64.41571
H         39.53481      -23.89939       66.30971
H         40.80070      -22.63227       66.16751
N         37.36698      -22.83280       63.29693
C         36.32435      -23.65990       62.66905
C         36.85006      -24.53025       61.50764
O         36.06198      -25.29707       60.96954
C         35.13367      -22.76964       62.18825
C         35.53676      -21.80243       61.03879
C         34.52839      -22.01793       63.38742
C         34.37138      -20.97397       60.49022
H         37.87205      -22.15916       62.71407
H         35.91752      -24.37304       63.41799
H         34.34510      -23.45092       61.79603
H         35.93797      -22.39761       60.19068
H         36.32676      -21.10300       61.37393
H         34.25144      -22.73763       64.18656
H         35.25071      -21.28205       63.80009
H         33.59991      -21.48522       63.09988
H         34.72446      -20.35915       59.63509
H         33.55415      -21.63766       60.13663
H         33.97708      -20.27614       61.25658
N         38.12561      -24.42664       61.02737
C         38.61034      -25.09718       59.80646
C         39.98600      -25.79722       59.94719
O         40.43209      -26.38470       58.97191
C         38.68294      -24.05194       58.66294
C         39.67579      -22.96200       58.95412
O         40.33589      -22.98562       60.12461
O         39.91306      -22.09703       58.12684
H         38.73275      -23.74633       61.48481
H         37.87739      -25.86832       59.48404
H         37.68110      -23.59951       58.49930
H         38.98377      -24.56289       57.72134
N         40.71109      -25.78205       61.10455
C         41.97853      -26.48653       61.29744
C         43.23004      -25.95821       60.58353
O         44.25181      -26.61383       60.73582
H         40.29978      -25.34405       61.93017
H         41.82637      -27.54935       61.00845
H         42.21849      -26.47789       62.38270
N         43.27111      -24.83866       59.79684
C         44.47437      -24.46552       59.03541
C         45.71194      -24.09942       59.87587
O         46.78093      -24.60545       59.56376
C         44.19117      -23.46741       57.87956
C         43.89425      -22.01850       58.15832
O         43.86241      -21.50521       59.38990
O         43.71790      -21.26614       57.21470
H         42.40867      -24.30164       59.65213
H         44.75845      -25.37557       58.45611
H         43.34847      -23.87615       57.28091
H         45.09398      -23.46044       57.22995
N         45.65058      -23.26229       60.95429
C         46.80893      -22.89627       61.78152
C         46.95550      -21.38978       62.00656
O         47.80749      -20.99470       62.79035
H         44.72989      -22.91124       61.24078
H         47.75973      -23.29717       61.36636
H         46.66058      -23.35528       62.78163
N         46.14642      -20.49858       61.37500
C         46.09909      -19.05499       61.57228
C         44.69464      -18.65726       62.03240
O         43.86064      -19.53681       62.21647
C         46.43427      -18.36090       60.23195
C         47.88807      -18.61089       59.80919
C         48.22372      -17.86743       58.54173
N         47.65154      -18.20615       57.36287
O         49.03321      -16.95273       58.57893
H         45.49189      -20.85912       60.69493
H         46.82332      -18.72461       62.34934
H         46.31318      -17.26321       60.33820
H         45.72987      -18.70956       59.44317
H         48.08609      -19.69412       59.66078
H         48.54585      -18.24353       60.62721
H         46.98533      -18.98968       57.30388
H         47.89243      -17.69416       56.50072
N         44.35065      -17.34662       62.21832
C         43.01309      -16.91642       62.62208
C         42.36314      -16.15536       61.47325
O         42.84911      -15.09826       61.09282
C         43.08056      -16.05041       63.91254
C         41.68796      -15.55274       64.34104
C         43.70858      -16.83412       65.07486
H         45.05449      -16.61313       62.04513
H         42.38066      -17.80138       62.85016
H         43.71744      -15.15980       63.71281
H         41.23135      -14.92546       63.55027
H         41.01174      -16.40697       64.55746
H         41.76829      -14.92093       65.25128
H         44.73648      -17.16493       64.81895
H         43.77592      -16.18825       65.97697
H         43.09455      -17.72606       65.32333
N         41.24675      -16.65772       60.87254
C         40.52227      -15.99799       59.78484
C         39.87365      -14.70968       60.29304
O         39.71998      -14.53868       61.49410
C         39.43450      -16.99485       59.27380
C         38.58189      -16.69419       58.06245
N         37.59799      -17.56062       57.72456
O         38.76790      -15.71116       57.36941
H         40.90722      -17.57365       61.19588
H         41.24825      -15.78161       58.97088
H         38.75267      -17.18227       60.11621
H         39.92490      -17.95128       59.03194
H         37.42628      -18.40749       58.28735
H         37.00180      -17.38450       56.90253
N         39.42537      -13.77688       59.41135
C         38.65344      -12.59199       59.77252
C         37.38504      -12.99687       60.51070
O         37.08924      -12.41922       61.54569
C         38.27525      -11.83546       58.48132
C         37.58115      -10.52474       58.74617
C         38.28522       -9.45414       59.32242
C         36.23303      -10.35233       58.39510
C         37.65146       -8.22612       59.53364
C         35.59833       -9.12746       58.61716
C         36.30783       -8.05763       59.18227
O         35.71152       -6.86618       59.38765
H         39.63443      -13.92106       58.41793
H         39.27237      -11.92720       60.41556
H         37.62877      -12.50091       57.86692
H         39.18604      -11.61904       57.88110
H         39.32891       -9.56445       59.59053
H         35.67194      -11.16642       57.95317
H         38.20735       -7.40307       59.96517
H         34.55744       -9.01019       58.34416
H         34.78676       -6.70690       59.15055
N         36.60541      -14.01060       60.03479
C         35.41116      -14.51118       60.71352
C         35.75569      -15.02197       62.10465
O         35.11472      -14.62075       63.06576
C         34.75472      -15.66300       59.91239
C         34.25758      -15.21615       58.52739
C         33.52257      -16.32736       57.83325
O         34.09069      -17.37546       57.57014
O         32.23021      -16.16655       57.48921
H         36.90440      -14.47278       59.16398
H         34.65872      -13.69559       60.80032
H         33.87424      -16.02566       60.48968
H         35.46672      -16.51132       59.79802
H         35.10596      -14.90116       57.88521
H         33.56881      -14.35251       58.64852
N         36.77141      -15.91485       62.27450
C         37.14291      -16.51097       63.56039
C         37.60857      -15.48919       64.59931
O         37.80284      -15.88572       65.74056
C         38.27857      -17.54128       63.36090
C         37.88825      -18.72732       62.45812
C         39.06582      -19.61617       62.15002
O         38.94410      -20.51801       61.33873
O         40.26497      -19.41383       62.72733
H         37.28817      -16.18948       61.43140
H         36.24916      -17.03128       63.97074
H         38.58980      -17.94827       64.34303
H         39.14561      -17.00489       62.91538
H         37.49739      -18.36271       61.49205
H         37.08241      -19.32271       62.93784
N         37.82315      -14.17821       64.29328
C         38.24246      -13.18139       65.25726
H         39.20832      -12.74091       64.93291
H         37.47971      -12.37509       65.30187
H         38.36836      -13.59974       66.27724
H         37.69971      -13.85315       63.33254
Ca        42.11519      -21.85213       60.66369
O         43.40873      -23.35550       63.25642
H         44.18972      -23.34182       63.86317
H         43.39796      -24.27231       62.88502
O         42.30485      -20.91530       64.32898
H         42.77645      -21.31696       65.10078
H         42.11810      -19.98586       64.61066
O         41.62063      -19.56783       59.30597
H         42.53605      -19.19394       59.31832
H         41.48757      -19.89262       58.38072

Ca 1.0



