%chk=holoCaM.loop3.water3.frame393.chk
%nprocshared=20
%mem=10GB
%nosave
#b3lyp/svp scf=(tight,noincore,xqc) Test 
#IOP(5/87=12) Density=Current Pop=(MK,readradii) iop(6/33=2) iop(6/42=6)

holoCaM.loop3.water3.frame393 

   0  1 
C         85.74179       47.21681       70.73250
C         84.81483       46.30811       71.48329
O         84.64306       45.16981       71.07039
H         86.75691       46.76731       70.70778
H         85.37416       47.34828       69.69401
H         85.81128       48.21445       71.21507
N         84.19534       46.73574       72.61854
C         83.32840       45.87171       73.40710
C         82.08204       45.51041       72.60736
O         81.32540       46.39672       72.23578
C         82.97753       46.56272       74.73923
C         82.30787       45.66419       75.73767
O         82.01431       46.15553       76.95084
O         82.05777       44.49666       75.48543
H         84.38672       47.69318       72.95356
H         83.91335       44.95910       73.66163
H         82.34311       47.45641       74.55147
H         83.92227       46.90215       75.21716
N         81.84155       44.21325       72.27273
C         80.73526       43.77649       71.42283
C         79.37833       44.08183       72.04609
O         78.56284       44.70119       71.37788
C         80.89828       42.27202       71.10326
C         79.92754       41.73715       70.04227
C         80.28783       40.28421       69.68506
C         79.35188       39.71391       68.61239
N         79.74432       38.35177       68.24714
H         82.52165       43.50809       72.59250
H         80.81884       44.30769       70.44756
H         80.77306       41.66897       72.01847
H         81.93129       42.12850       70.71165
H         80.00856       42.35858       69.12402
H         78.88565       41.79045       70.42564
H         80.23305       39.64721       70.59518
H         81.33095       40.25620       69.29760
H         79.39035       40.35701       67.70524
H         78.30835       39.70748       68.99750
H         79.70496       37.72569       69.08403
H         79.08642       37.98789       67.52047
H         80.71345       38.35018       67.85264
N         79.07142       43.68919       73.31928
C         77.76157       43.89642       73.93864
C         77.76486       44.93375       75.05953
O         76.71450       45.13764       75.65364
C         77.12356       42.55130       74.37084
C         77.69244       41.81508       75.56134
O         78.76136       42.24099       76.25534
O         77.13036       40.79798       75.93442
H         79.80204       43.23075       73.86430
H         77.06130       44.30534       73.17858
H         77.12471       41.86295       73.49794
H         76.06233       42.76141       74.62772
N         78.86015       45.69747       75.34891
C         78.81364       46.80037       76.30364
C         78.67805       46.39186       77.75930
O         78.51894       47.28038       78.58493
H         79.72243       45.57493       74.80265
H         77.96268       47.46163       76.02863
H         79.74070       47.40580       76.21727
N         78.74540       45.09162       78.16588
C         78.57013       44.67851       79.56035
C         79.64847       45.20976       80.50940
O         79.50168       45.02453       81.70899
C         78.45542       43.13640       79.64868
C         79.74332       42.38820       79.36936
N         80.16714       41.41975       80.21219
O         80.39394       42.62912       78.36525
H         78.87779       44.36867       77.45148
H         77.58916       45.08893       79.88920
H         77.69000       42.81244       78.91045
H         78.07778       42.84780       80.65362
H         79.62983       41.17630       81.05676
H         81.02917       40.89254       80.00818
N         80.75775       45.86062       80.04902
C         81.80388       46.40868       80.89852
C         83.13740       45.71437       80.69804
O         84.09852       46.13196       81.32949
H         80.89013       45.97709       79.04159
H         81.54166       46.31905       81.97486
H         81.90975       47.48954       80.66510
N         83.26331       44.60769       79.90846
C         84.47245       43.79529       79.84468
C         84.86038       43.48026       78.41376
O         84.00658       43.03353       77.65743
C         84.18528       42.46880       80.57622
C         83.89761       42.69860       82.04265
C         82.63338       42.40703       82.57730
C         84.89406       43.20942       82.89130
C         82.36423       42.62522       83.92952
C         84.62633       43.42424       84.24652
C         83.35817       43.13302       84.76979
O         83.08445       43.33487       86.07400
H         82.43389       44.23636       79.42271
H         85.33080       44.28224       80.35580
H         85.05608       41.78238       80.49284
H         83.31792       41.97508       80.08470
H         81.85183       42.01741       81.95185
H         85.87923       43.43791       82.50537
H         81.38109       42.39820       84.32290
H         85.40503       43.81636       84.88765
H         83.74526       43.68106       86.69017
N         86.16824       43.55256       78.01845
C         86.62977       43.02500       76.73903
C         87.34892       41.71504       77.02630
O         88.45687       41.72434       77.54558
C         87.54106       44.03315       75.97449
C         86.78882       45.35799       75.69755
C         88.05779       43.40908       74.65916
C         87.67130       46.43876       75.06362
H         86.87981       43.86052       78.69926
H         85.75581       42.80025       76.08772
H         88.41937       44.25691       76.62030
H         86.41351       45.76942       76.65846
H         85.91688       45.16695       75.03701
H         87.21510       43.19587       73.96957
H         88.78010       44.07413       74.14716
H         88.60788       42.46761       74.85529
H         88.02844       46.14218       74.05689
H         87.08412       47.37259       74.94176
H         88.54581       46.65105       75.71536
N         86.72705       40.53691       76.75148
C         87.31787       39.22070       76.95345
C         88.42813       38.96980       75.94655
O         88.67487       39.81060       75.09820
C         86.22070       38.14115       76.80658
O         85.66518       38.17691       75.51923
H         85.76381       40.58038       76.41565
H         87.71645       39.15580       77.98920
H         85.42935       38.34631       77.56406
H         86.63530       37.12916       76.99937
H         84.83010       37.64187       75.55582
N         89.12428       37.80153       75.96404
C         90.11555       37.45192       74.95116
C         89.46769       37.36517       73.57874
O         89.98118       37.95455       72.63834
C         90.76614       36.10932       75.29412
H         88.91993       37.12170       76.71233
H         90.92953       38.21151       74.93838
H         90.01090       35.29591       75.32974
H         91.53616       35.85643       74.53380
H         91.26595       36.18002       76.28396
N         88.30589       36.66963       73.41129
C         87.60673       36.52782       72.13555
C         87.35295       37.87059       71.47763
O         87.71858       38.05200       70.32493
C         86.26287       35.81355       72.35787
H         87.88244       36.23809       74.24826
H         88.21933       35.90371       71.44858
H         85.72777       35.68263       71.39315
H         86.42775       34.81172       72.80732
H         85.61131       36.39919       73.04373
N         86.72939       38.85902       72.16811
C         86.40270       40.16949       71.61181
C         87.65885       40.87740       71.13596
O         87.73508       41.20185       69.95885
C         85.61681       40.98840       72.66368
C         84.25238       40.31452       72.91017
C         83.47048       40.91167       74.03335
O         83.89618       40.90550       75.16979
O         82.22248       41.31864       73.81187
H         86.48090       38.65779       73.14654
H         85.73679       40.03928       70.72813
H         85.44106       42.02738       72.30725
H         86.20550       41.03128       73.60688
H         84.37560       39.24450       73.16633
H         83.65300       40.36640       71.97374
N         88.69901       41.11053       71.98035
C         89.94845       41.71857       71.56698
H         90.77900       41.00328       71.74808
H         89.95537       41.98788       70.48967
H         90.12958       42.63694       72.16203
H         88.61664       40.82119       72.95939
Ca        80.82167       41.84826       75.46719
O         82.78809       40.05912       77.93343
H         83.43466       39.92704       78.67127
H         82.65835       39.15390       77.55426
O         79.78932       39.13062       77.26447
H         79.45999       39.96562       77.68072
H         79.93351       38.51570       78.02664
O         79.82043       39.57323       73.55243
H         79.56471       39.54407       74.50802
H         80.73436       39.19278       73.53022

Ca 1.0



