%chk=holoCaM.loop4.water3.frame314.chk
%nprocshared=20
%mem=10GB
%nosave
#b3lyp/svp scf=(tight,noincore,xqc) Test 
#IOP(5/87=12) Density=Current Pop=(MK,readradii) iop(6/33=2) iop(6/42=6)

holoCaM.loop4.water3.frame314 

   -3  1 
C          1.89261       36.60576       88.33990
C          1.70615       37.93490       88.99002
O          0.60020       38.21657       89.42710
H          2.83777       36.14872       88.69456
H          1.04742       35.93206       88.60117
H          1.92014       36.73957       87.23893
N          2.74816       38.81421       89.08246
C          2.60137       40.13297       89.68177
C          3.87254       40.96395       89.48958
O          4.94163       40.53004       89.89537
C          2.23271       40.03026       91.18917
C          1.53460       41.26245       91.67003
O          1.10857       41.32363       92.81118
O          1.44589       42.31736       90.84904
H          3.66062       38.53556       88.69204
H          1.75706       40.61427       89.13800
H          3.13163       39.82924       91.80862
H          1.51186       39.21241       91.36284
N          3.80749       42.17389       88.86480
C          4.94262       43.03523       88.54192
C          4.86765       44.38277       89.27811
O          5.88338       45.05831       89.36612
C          4.99543       43.28777       86.98604
C          3.90399       44.30100       86.51126
C          4.89400       41.96265       86.20773
C          3.82653       44.53910       85.00223
H          2.88949       42.49011       88.58179
H          5.87967       42.51778       88.84814
H          5.98398       43.74145       86.75201
H          4.11888       45.28283       86.97681
H          2.90056       43.98761       86.83970
H          5.11307       42.12837       85.13142
H          5.62811       41.22430       86.58919
H          3.87108       41.53558       86.29079
H          4.81714       44.82531       84.59466
H          3.44691       43.63670       84.47762
H          3.10657       45.36353       84.80388
N          3.65786       44.90032       89.66211
C          3.42667       46.27502       90.10622
C          2.76136       46.38261       91.47966
O          2.89969       47.42495       92.10462
C          2.64176       47.05624       89.01122
C          1.37184       46.44463       88.45215
O          0.84850       45.29895       88.91354
O          0.81256       47.00451       87.52441
H          2.83161       44.32172       89.53387
H          4.40342       46.79652       90.21369
H          3.32585       47.17701       88.14645
H          2.38653       48.07035       89.38566
N          2.04471       45.36328       92.02552
C          1.44206       45.39518       93.35199
C          0.37054       46.45150       93.45259
O          0.37867       47.26401       94.36623
H          1.90183       44.51312       91.47929
H          2.22117       45.52296       94.13108
H          0.94265       44.41444       93.51940
N         -0.61469       46.44049       92.52432
C         -1.74126       47.36492       92.45388
C         -3.06260       46.68898       92.78974
O         -4.04631       47.39174       92.98017
C         -1.80702       48.00971       91.04310
C         -1.79795       47.06933       89.84953
O         -1.70541       45.73537       89.96243
O         -1.80332       47.54587       88.73176
H         -0.53451       45.69450       91.83137
H         -1.61303       48.16998       93.21355
H         -0.91710       48.65652       90.91525
H         -2.71632       48.64825       90.97741
N         -3.17088       45.33509       92.85721
C         -4.42090       44.63236       93.07801
C         -5.12830       44.28276       91.77656
O         -6.17250       43.65196       91.84229
H         -2.35621       44.76545       92.62836
H         -5.10501       45.24172       93.70492
H         -4.19433       43.70570       93.65020
N         -4.62593       44.65784       90.56251
C         -5.26949       44.42174       89.27490
C         -4.48993       43.40174       88.46553
O         -3.40964       42.99692       88.87782
C         -5.31280       45.73720       88.44212
C         -5.85255       46.95704       89.20245
C         -5.88422       48.20810       88.34545
N         -4.75439       48.73269       87.81298
O         -6.95043       48.76922       88.14834
H         -3.74676       45.15731       90.54120
H         -6.29230       44.02287       89.44124
H         -5.92315       45.56913       87.52811
H         -4.27780       45.98132       88.11753
H         -5.20360       47.16236       90.08082
H         -6.87744       46.72922       89.56125
H         -3.84640       48.28713       87.95927
H         -4.78173       49.59669       87.25080
N         -4.99053       42.96014       87.27295
C         -4.28286       42.04127       86.39338
C         -4.04193       42.72772       85.06275
O         -4.98993       43.02926       84.35109
C         -5.06664       40.71888       86.22102
C         -4.30675       39.73954       85.31091
C         -5.31422       40.07062       87.59067
H         -5.91540       43.29718       86.96923
H         -3.30530       41.77868       86.84214
H         -6.05416       40.92256       85.75095
H         -4.17899       40.16656       84.29400
H         -3.30625       39.50170       85.72945
H         -4.88626       38.79856       85.20233
H         -5.77962       39.07042       87.47007
H         -4.36106       39.95917       88.15200
H         -6.00893       40.69923       88.18774
N         -2.77401       43.04338       84.69306
C         -2.43194       43.75696       83.47323
C         -2.55911       42.87249       82.24429
O         -2.79238       41.68957       82.35479
C         -0.97628       44.29592       83.63746
C         -0.42211       45.12211       82.50751
N         -1.11455       46.16864       82.00355
O          0.67381       44.84814       82.04622
H         -2.01964       42.83772       85.35609
H         -3.11810       44.62336       83.37451
H         -0.27835       43.45068       83.84275
H         -0.97736       44.95985       84.51623
H         -2.04663       46.40744       82.37031
H         -0.74889       46.69320       81.19623
N         -2.36293       43.42240       81.02557
C         -2.16552       42.73590       79.75433
C         -0.99196       41.75983       79.85979
O         -1.15520       40.58149       79.57599
C         -1.90519       43.87860       78.72888
C         -1.72985       43.57352       77.27523
C         -2.61018       42.71698       76.60488
C         -0.73759       44.25753       76.54866
C         -2.49718       42.53901       75.22440
C         -0.63930       44.09382       75.16753
C         -1.52113       43.23368       74.49963
O         -1.44942       43.08028       73.16323
H         -2.31392       44.44122       81.00918
H         -3.08538       42.17726       79.47589
H         -1.04550       44.49797       79.07766
H         -2.79764       44.54037       78.76949
H         -3.39037       42.19890       77.14555
H         -0.06594       44.95301       77.04053
H         -3.18527       41.87715       74.71665
H          0.10940       44.65051       74.61716
H         -0.80578       43.56551       72.62751
N          0.22244       42.20465       80.28285
C          1.42880       41.38547       80.41414
C          1.34512       40.34468       81.54708
O          2.18793       39.45954       81.59154
C          2.65409       42.30569       80.66039
C          2.86597       43.40809       79.59249
C          3.13550       42.85916       78.22138
O          4.15903       42.00777       78.02343
O          2.44872       43.20802       77.27372
H          0.28508       43.20206       80.48224
H          1.57832       40.84725       79.45291
H          3.57983       41.69375       80.72632
H          2.52023       42.81571       81.64070
H          3.73995       44.01874       79.89868
H          1.99923       44.10153       79.54269
N          0.37528       40.40045       82.50305
C          0.21115       39.43395       83.59512
C         -0.75937       38.33506       83.20264
O         -0.46672       37.17112       83.43582
C         -0.32141       40.15313       84.84606
C          0.77938       40.96874       85.52633
C          0.25437       41.73279       86.69875
O          1.06728       42.56677       87.33693
O         -0.89845       41.63153       87.07550
H         -0.28194       41.18996       82.47189
H          1.17261       38.95058       83.88174
H         -0.68846       39.41806       85.59547
H         -1.17631       40.80433       84.56129
H          1.22981       41.68734       84.81012
H          1.57980       40.28247       85.88721
N         -1.94652       38.63517       82.62137
C         -2.93953       37.65706       82.25119
H         -3.81541       38.17710       81.80258
H         -2.52123       36.95709       81.49989
H         -3.28291       37.10597       83.15057
H         -2.15057       39.60355       82.41195
Ca        -0.08987       43.40413       89.64292
O         -1.32336       40.66406       89.92891
H         -0.79105       40.21931       89.22624
H         -2.18258       40.17454       89.93911
O         -1.41822       44.71470       87.05535
H         -0.65706       45.21570       86.67409
H         -2.01588       45.41531       87.40948
O         -1.58575       42.76019       91.76808
H         -0.87683       42.54838       92.41904
H         -2.35084       42.19770       92.03503

Ca 1.0



