%chk=holoCaM.loop4.water3.frame336.chk
%nprocshared=20
%mem=10GB
%nosave
#b3lyp/svp scf=(tight,noincore,xqc) Test 
#IOP(5/87=12) Density=Current Pop=(MK,readradii) iop(6/33=2) iop(6/42=6)

holoCaM.loop4.water3.frame336 

   -3  1 
C         33.83698       20.86710       -5.75683
C         35.03537       19.97170       -5.85176
O         34.90463       18.88350       -6.39245
H         33.03638       20.35536       -5.18311
H         34.08280       21.82549       -5.25447
H         33.46526       21.08948       -6.77970
N         36.23996       20.35767       -5.33905
C         37.44052       19.53202       -5.43207
C         38.56742       20.16567       -4.62690
O         38.90787       21.30970       -4.89907
C         37.87963       19.38854       -6.91030
C         38.97227       18.37694       -7.09477
O         39.46347       18.21629       -8.20008
O         39.37560       17.60343       -6.06922
H         36.29392       21.26659       -4.85309
H         37.20262       18.53148       -5.00978
H         38.21723       20.37883       -7.28719
H         37.04060       19.05417       -7.55203
N         39.18574       19.48234       -3.61737
C         40.21229       20.08203       -2.76581
C         41.59704       19.45269       -2.91925
O         42.52451       20.01744       -2.35472
C         39.72910       20.12718       -1.27717
C         39.26562       18.77360       -0.66373
C         38.56516       21.12595       -1.14756
C         40.32163       17.67465       -0.62907
H         38.89768       18.51239       -3.42993
H         40.38691       21.13558       -3.07815
H         40.55950       20.52889       -0.65456
H         38.37084       18.38879       -1.19669
H         38.96279       18.96096        0.39020
H         38.87526       22.13133       -1.50347
H         37.68605       20.79226       -1.73988
H         38.25605       21.22599       -0.08463
H         41.23072       18.02200       -0.09582
H         39.91522       16.78906       -0.09780
H         40.57485       17.34385       -1.64995
N         41.83745       18.31242       -3.63715
C         43.18054       17.72627       -3.74851
C         43.54569       17.24099       -5.15600
O         44.66871       16.78541       -5.32488
C         43.35283       16.59966       -2.70455
C         42.42375       15.43184       -2.86388
O         41.60894       15.39560       -3.76793
O         42.48941       14.41187       -1.98802
H         41.03477       17.79770       -4.01987
H         43.94235       18.49207       -3.48464
H         43.18993       17.02990       -1.69333
H         44.39640       16.21931       -2.74498
N         42.68063       17.29420       -6.20999
C         43.01850       16.82675       -7.54757
C         43.33218       15.34451       -7.57144
O         44.43302       14.97587       -7.95300
H         41.74911       17.69760       -6.08268
H         43.88254       17.41121       -7.93075
H         42.15636       17.00851       -8.22676
N         42.39408       14.44082       -7.17531
C         42.60552       12.98849       -7.14226
C         41.62980       12.21587       -8.02446
O         41.71307       10.99387       -8.04778
C         42.54265       12.48647       -5.68416
C         41.26352       12.77350       -4.94089
O         40.22369       13.41182       -5.51926
O         41.20599       12.48573       -3.75929
H         41.49257       14.82105       -6.86220
H         43.62306       12.74013       -7.51477
H         43.36126       12.99203       -5.12590
H         42.74028       11.39280       -5.65152
N         40.69342       12.83946       -8.78993
C         39.73998       12.13783       -9.63046
C         38.80702       11.25923       -8.82391
O         38.67377       10.09142       -9.14174
H         40.65103       13.86565       -8.80226
H         40.27517       11.53933      -10.40125
H         39.11765       12.89201      -10.15838
N         38.11298       11.79286       -7.77462
C         37.12254       11.06195       -6.96643
C         36.45999       11.98869       -5.93427
O         36.84626       13.13535       -5.81171
C         37.72668        9.80591       -6.29431
C         38.91252       10.11055       -5.36737
C         39.52287        8.85854       -4.77839
N         40.58768        8.95332       -3.95105
O         39.06976        7.75445       -5.04757
H         38.29260       12.78050       -7.57303
H         36.31521       10.72623       -7.65262
H         38.06724        9.09848       -7.07640
H         36.93663        9.27490       -5.72121
H         38.57661       10.77222       -4.54068
H         39.70078       10.63106       -5.94951
H         40.98760        9.87102       -3.71199
H         41.01569        8.10589       -3.54978
N         35.39639       11.54655       -5.19069
C         34.62610       12.42780       -4.30912
C         34.63430       11.90127       -2.87666
O         34.30830       10.74444       -2.66702
C         33.17319       12.56459       -4.84997
C         32.36516       13.57360       -4.01358
C         33.16817       13.03430       -6.31669
H         35.06908       10.57967       -5.31033
H         35.04835       13.44701       -4.31243
H         32.66705       11.57534       -4.80521
H         32.83803       14.57871       -4.05348
H         31.32903       13.66017       -4.40373
H         32.29871       13.25073       -2.95646
H         33.68453       12.30056       -6.97030
H         32.12470       13.12938       -6.68653
H         33.67295       14.01951       -6.41814
N         34.92254       12.74353       -1.83376
C         34.86988       12.34702       -0.42246
C         33.64368       12.97033        0.25177
O         32.87391       13.62259       -0.43091
C         36.19912       12.73347        0.28261
C         36.42281       14.22577        0.44160
N         37.53025       14.83617       -0.03161
O         35.60644       14.89188        1.04890
H         35.12222       13.73158       -2.04156
H         34.75903       11.24509       -0.33638
H         37.04556       12.27085       -0.26880
H         36.20022       12.29520        1.30215
H         38.25855       14.31236       -0.52133
H         37.66941       15.84681        0.11723
N         33.40080       12.82732        1.59311
C         32.27225       13.48520        2.26416
C         32.31978       14.99388        2.07592
O         31.35681       15.56029        1.57576
C         32.28270       13.24211        3.79715
C         31.77983       11.90652        4.27399
C         30.44293       11.54136        4.04068
C         32.59967       11.06053        5.03822
C         29.93025       10.35650        4.57439
C         32.08442        9.87376        5.57057
C         30.74444        9.52267        5.34687
O         30.22561        8.39794        5.87934
H         34.05521       12.26779        2.15806
H         31.31308       13.11866        1.83626
H         31.59478       13.97426        4.27808
H         33.29945       13.45138        4.19569
H         29.78714       12.19002        3.47314
H         33.62818       11.32930        5.24432
H         28.89251       10.09789        4.40454
H         32.72164        9.23787        6.17196
H         30.74495        7.80905        6.44504
N         33.38787       15.71279        2.52218
C         33.43597       17.17422        2.54624
C         33.39455       17.83414        1.15488
O         33.33627       19.05302        1.09086
C         34.69367       17.61340        3.34425
C         34.62184       19.03655        3.92131
C         33.52280       19.14701        4.94637
O         33.53542       18.35511        6.03750
O         32.61563       19.94877        4.79554
H         34.15983       15.18757        2.95913
H         32.53571       17.49377        3.11477
H         35.59428       17.48771        2.70381
H         34.82505       16.94389        4.22409
H         34.48735       19.78672        3.11750
H         35.58182       19.25936        4.43360
N         33.37378       17.10102        0.00362
C         33.23202       17.66808       -1.33504
C         31.79567       17.50011       -1.79766
O         31.20411       18.46915       -2.25290
C         34.15642       16.94461       -2.33064
C         35.65705       17.11496       -2.04530
C         36.48457       16.28322       -2.99846
O         37.81789       16.19407       -2.86168
O         35.95028       15.64257       -3.88579
H         33.39315       16.07836        0.06309
H         33.47797       18.75378       -1.35512
H         33.95688       17.32629       -3.35761
H         33.90932       15.86080       -2.30548
H         35.86301       16.77788       -1.01267
H         35.94829       18.18450       -2.13444
N         31.16083       16.29942       -1.69475
C         29.79861       16.09540       -2.13088
H         29.12081       16.81536       -1.62524
H         29.73537       16.22420       -3.23117
H         29.47300       15.06409       -1.87332
H         31.64600       15.50190       -1.27101
Ca        38.90720       14.81689       -4.30600
O         36.18192       15.79862       -6.65186
H         36.34273       16.68808       -6.25152
H         35.73400       15.98882       -7.51230
O         38.94012       12.74092       -2.26054
H         39.57654       13.48797       -2.11963
H         39.26657       12.03037       -1.65518
O         38.71141       15.25121       -7.72758
H         38.29786       15.06995       -8.60827
H         39.57870       15.67170       -7.94517

Ca 1.0



