%chk=holoCaM.loop4.water3.frame133.chk
%nprocshared=20
%mem=10GB
%nosave
#b3lyp/svp scf=(tight,noincore,xqc) Test 
#IOP(5/87=12) Density=Current Pop=(MK,readradii) iop(6/33=2) iop(6/42=6)

holoCaM.loop4.water3.frame133 

   -3  1 
C         21.35245      123.58759       98.84427
C         20.57476      123.68840      100.12405
O         20.13442      122.65736      100.60705
H         22.22682      122.91884       99.01197
H         20.72164      123.15142       98.04357
H         21.73530      124.57592       98.51767
N         20.42296      124.88675      100.76536
C         19.87761      124.99766      102.11471
C         18.79179      126.05980      102.26420
O         19.05871      127.21599      101.96802
C         21.04525      125.36329      103.04894
C         20.59852      125.39966      104.47597
O         20.08675      124.41176      104.97480
O         20.73665      126.52586      105.20044
H         20.83276      125.73146      100.33823
H         19.47834      124.01893      102.45197
H         21.47872      126.34631      102.76338
H         21.85208      124.61048      102.94964
N         17.58736      125.74784      102.84458
C         16.60429      126.75861      103.26166
C         16.32862      126.73445      104.77648
O         15.70987      127.67354      105.25894
C         15.24117      126.59667      102.51554
C         14.40008      125.40363      103.06691
C         15.46577      126.50798      100.99710
C         13.01584      125.27329      102.43621
H         17.38831      124.76184      103.03673
H         17.00919      127.76389      103.01337
H         14.64858      127.51756      102.71718
H         14.21029      125.55898      104.14961
H         14.94399      124.44892      102.96748
H         16.04965      127.38378      100.64551
H         16.01714      125.58205      100.73226
H         14.50127      126.51209      100.45115
H         13.08599      125.00949      101.36302
H         12.45543      124.46335      102.95044
H         12.45063      126.22243      102.55636
N         16.62853      125.64547      105.54940
C         16.15057      125.44561      106.92644
C         17.26575      125.41135      107.96144
O         16.95827      125.33656      109.14637
C         15.34205      124.12279      107.00529
C         16.16053      122.87334      106.69784
O         17.47837      122.96622      106.37379
O         15.61504      121.78434      106.72363
H         17.14727      124.87719      105.12123
H         15.47984      126.28603      107.21084
H         14.48942      124.17861      106.29238
H         14.91006      124.01938      108.02626
N         18.57326      125.45862      107.60455
C         19.68040      125.48389      108.54398
C         19.88236      124.24125      109.40669
O         20.80429      124.28835      110.20982
H         18.80566      125.55111      106.61202
H         19.54116      126.36087      109.21294
H         20.61871      125.64421      107.97109
N         19.09358      123.12259      109.35843
C         19.26450      122.02055      110.31527
C         20.58603      121.25989      110.19081
O         20.92057      120.54442      111.12464
C         18.07835      121.01863      110.29956
C         17.85082      120.29070      109.00647
O         18.48493      120.57624      108.01541
O         16.91749      119.32445      108.93134
H         18.30604      123.08891      108.70133
H         19.25577      122.48434      111.32594
H         17.13729      121.55024      110.54710
H         18.26407      120.25480      111.08429
N         21.35665      121.31288      109.07104
C         22.61266      120.58509      108.92322
C         22.53228      119.51112      107.86001
O         23.57892      118.98558      107.49910
H         21.03323      121.86785      108.26952
H         22.94393      120.10170      109.86764
H         23.39333      121.32237      108.63681
N         21.34112      119.10809      107.32777
C         21.21976      118.13365      106.25502
C         20.46968      118.77777      105.05932
O         20.83454      120.12186      104.91744
C         20.43662      116.88702      106.72647
C         20.97559      116.26765      108.02343
C         20.22281      114.99709      108.33608
N         19.42589      114.90458      109.42651
O         20.32858      114.03883      107.58477
H         20.47389      119.50626      107.68937
H         22.23456      117.81586      105.92673
H         20.45824      116.12544      105.91821
H         19.37643      117.15953      106.91459
H         20.84446      117.00284      108.84790
H         22.05747      116.03198      107.93522
H         19.30353      115.70297      110.06566
H         18.91116      114.03246      109.62189
N         20.76836      118.07346      103.80695
C         19.81426      118.33816      102.71179
C         18.71523      117.27834      102.72136
O         19.07006      116.10778      102.64755
C         20.58849      118.28671      101.36126
C         19.68542      118.70348      100.18953
C         21.83722      119.18623      101.37551
H         20.96299      117.05272      103.92428
H         19.38667      119.35839      102.81900
H         20.94738      117.24716      101.18978
H         19.33178      119.74885      100.32634
H         20.24819      118.64437       99.23339
H         18.80303      118.03615      100.10985
H         22.53785      118.88456      102.18339
H         22.38700      119.09453      100.41480
H         21.56050      120.24671      101.51513
N         17.37973      117.58531      102.79383
C         16.35585      116.53327      102.83998
C         15.44941      116.52235      101.61762
O         15.52372      117.40284      100.78371
C         15.54992      116.55225      104.16797
C         14.39161      117.52928      104.26483
N         14.56200      118.86903      104.23784
O         13.26106      117.08190      104.39739
H         17.09667      118.57448      102.81582
H         16.86728      115.54767      102.83281
H         16.24417      116.68256      105.02511
H         15.10281      115.54032      104.28393
H         15.48682      119.29261      104.13470
H         13.74825      119.49582      104.32946
N         14.58417      115.48913      101.45120
C         13.67648      115.28120      100.32153
C         12.59868      116.34844      100.08897
O         11.89824      116.22759       99.09282
C         12.97801      113.90061      100.46098
C         11.92423      113.81979      101.56924
C         10.58183      113.58288      101.21661
C         12.23142      113.95623      102.94374
C          9.58797      113.49386      102.19831
C         11.23850      113.87603      103.91567
C          9.91626      113.64344      103.55194
O          8.97525      113.56070      104.51248
H         14.68028      114.74011      102.13656
H         14.31355      115.25692       99.40887
H         13.74183      113.10740      100.60750
H         12.49147      113.68712       99.48288
H         10.29874      113.46365      100.17847
H         13.21630      114.11439      103.32383
H          8.56353      113.30781      101.90556
H         11.50626      113.99036      104.95929
H          8.04530      113.39245      104.30929
N         12.39537      117.40352      100.92534
C         11.37447      118.43122      100.69364
C         12.06563      119.72970      100.32734
O         11.77571      120.29431       99.28209
C         10.46655      118.59350      101.93017
C          9.70658      117.29552      102.24921
C          8.74776      117.48593      103.38988
O          7.82874      118.28431      103.29433
O          8.88204      116.75935      104.51552
H         12.99573      117.49876      101.75282
H         10.71181      118.16382       99.83991
H          9.72675      119.39662      101.71330
H         11.06412      118.89961      102.81726
H         10.43500      116.49958      102.51162
H          9.12771      116.96544      101.35951
N         13.07027      120.19818      101.11082
C         13.93558      121.32771      100.78320
C         14.51492      121.19889       99.38210
O         14.29838      122.08592       98.56833
C         15.06412      121.34497      101.83277
C         16.25244      122.25043      101.52206
C         17.22265      122.11274      102.64609
O         18.33221      121.65187      102.45545
O         16.84504      122.44625      103.88715
H         13.28067      119.66298      101.96441
H         13.35842      122.27844      100.83152
H         15.48432      120.31687      101.91414
H         14.61176      121.60778      102.81624
H         15.93854      123.30123      101.40502
H         16.74552      121.92970      100.57944
N         15.28283      120.13012       99.04865
C         15.91462      119.94572       97.76129
H         17.01151      119.85206       97.91008
H         15.53617      119.01053       97.29881
H         15.72315      120.79279       97.07131
H         15.44432      119.41226       99.75371
Ca        19.09636      121.47848      105.65570
O         17.53161      119.21228      105.43296
H         17.74378      118.58840      106.16683
H         16.95655      119.89488      105.85616
O         21.42453      122.28038      103.47339
H         20.76087      121.76304      102.95852
H         22.29785      122.05286      103.07021
O         21.86764      122.82161      106.17242
H         22.18984      123.60090      106.69035
H         22.64619      122.21678      106.10022

Ca 1.0



