%chk=holoCaM.loop2.water2.frame155.chk
%nprocshared=20
%mem=10GB
%nosave
#b3lyp/svp scf=(tight,noincore,xqc) Test 
#IOP(5/87=12) Density=Current Pop=(MK,readradii) iop(6/33=2) iop(6/42=6)

holoCaM.loop2.water2.frame155 

   -2  1 
C         -2.73175       80.49571      -22.06658
C         -1.32251       80.51814      -22.58376
O         -0.40674       80.82921      -21.83676
H         -3.36618       81.18227      -22.66466
H         -3.13614       79.46375      -22.15738
H         -2.77265       80.79620      -20.99862
N         -1.08014       80.15901      -23.87175
C          0.25709       80.03258      -24.43803
C          0.98715       81.37225      -24.49060
O          0.45517       82.31591      -25.05861
C          0.15495       79.43857      -25.86037
C          1.46884       78.92734      -26.37459
O          1.54668       78.49321      -27.51203
O          2.53857       78.85056      -25.56265
H         -1.89174       79.89779      -24.45420
H          0.81492       79.30794      -23.80690
H         -0.26412       80.20429      -26.54899
H         -0.52876       78.56299      -25.85860
N          2.23250       81.50562      -23.94831
C          3.01220       82.74166      -23.96543
C          4.33142       82.60038      -24.73099
O          5.08720       83.56281      -24.74858
C          3.30814       83.14480      -22.51522
H          2.65742       80.68361      -23.50107
H          2.43706       83.56710      -24.43858
H          3.91674       82.36281      -22.01071
H          3.86756       84.10468      -22.48058
H          2.35969       83.27663      -21.95321
N          4.68865       81.45031      -25.37980
C          6.02213       81.24928      -25.95316
C          6.12049       80.19087      -27.06148
O          7.22089       80.01465      -27.56887
C          7.00858       80.91575      -24.81678
C          6.64836       79.68370      -24.02775
O          7.37284       79.34777      -23.10513
O          5.52531       78.97255      -24.26336
H          4.04744       80.66029      -25.33857
H          6.35377       82.19643      -26.43448
H          7.04242       81.76689      -24.10334
H          8.03072       80.78954      -25.23448
N          5.05471       79.47762      -27.52836
C          5.15300       78.54179      -28.63817
C          6.00450       77.30679      -28.39554
O          6.19309       76.57538      -29.35791
H          4.11685       79.65140      -27.16437
H          5.57222       79.09082      -29.50953
H          4.13525       78.19441      -28.91923
N          6.56579       76.99013      -27.18834
C          7.47789       75.85267      -27.04800
C          6.84382       74.47993      -27.29815
O          7.59682       73.51475      -27.29810
C          8.17981       75.83013      -25.66555
C          7.28190       75.49492      -24.49906
N          7.82818       75.18239      -23.30292
O          6.06868       75.46616      -24.63214
H          6.40718       77.60280      -26.37684
H          8.28379       75.99760      -27.80168
H          8.70592       76.78835      -25.46605
H          8.95577       75.03430      -25.71236
H          8.85034       75.17814      -23.17222
H          7.22754       74.90236      -22.51691
N          5.50022       74.29064      -27.48003
C          4.91464       72.96604      -27.64812
C          3.91689       72.64429      -26.55572
O          2.82914       72.17971      -26.86407
H          4.86644       75.09611      -27.48503
H          5.69636       72.17831      -27.60616
H          4.43148       72.88718      -28.64594
N          4.24683       72.83013      -25.24649
C          3.43609       72.37889      -24.11541
C          2.88514       73.53452      -23.28200
O          3.16948       74.69050      -23.55485
C          4.33264       71.47428      -23.21469
C          4.76521       70.20215      -23.94199
O          5.48747       72.16850      -22.80683
H          5.15293       73.26707      -25.03781
H          2.55464       71.79858      -24.46738
H          3.78327       71.12521      -22.31385
H          5.20523       72.85917      -22.15229
H          5.40215       69.58943      -23.26794
H          3.87328       69.60345      -24.22266
H          5.34956       70.44128      -24.85503
N          2.11561       73.24428      -22.18976
C          1.71636       74.20222      -21.16579
C          2.74899       74.12589      -20.05882
O          3.04737       73.04183      -19.57938
C          0.26671       73.89400      -20.64634
C         -0.76549       74.40877      -21.68245
C          0.00079       74.53138      -19.26257
C         -2.22981       74.12804      -21.33347
H          1.94095       72.25175      -21.97513
H          1.73386       75.24463      -21.55073
H          0.15725       72.79538      -20.50702
H         -0.55483       73.94803      -22.67077
H         -0.65627       75.50972      -21.77301
H          0.09659       75.63326      -19.30946
H         -1.00240       74.26473      -18.87611
H          0.70784       74.13540      -18.50398
H         -2.40650       73.03702      -21.24420
H         -2.53436       74.63427      -20.39466
H         -2.87922       74.53453      -22.13782
N          3.28198       75.27944      -19.56509
C          4.23598       75.32105      -18.46600
C          3.53731       75.76188      -17.19852
O          2.34652       75.99730      -17.22374
C          5.37400       76.29565      -18.80511
C          6.17770       75.85371      -19.98478
O          6.47487       76.72508      -20.96020
O          6.72758       74.76546      -19.97152
H          2.93639       76.18027      -19.92550
H          4.65406       74.31160      -18.26376
H          6.08096       76.34738      -17.95227
H          4.97173       77.32091      -18.97545
N          4.22947       75.85092      -16.02570
C          3.59874       76.25885      -14.77657
C          3.06427       77.68997      -14.85234
O          1.89016       77.85230      -14.53018
C          4.54335       76.00492      -13.57881
C          3.90943       76.38118      -12.26055
C          2.69299       75.80247      -11.85182
C          4.53753       77.31742      -11.42205
C          2.11324       76.16561      -10.63391
C          3.95799       77.67037      -10.20047
C          2.74544       77.09785       -9.80823
H          5.22445       75.59102      -16.01499
H          2.73413       75.58144      -14.60571
H          5.50343       76.53484      -13.70013
H          4.78667       74.92029      -13.55296
H          2.18662       75.07488      -12.47238
H          5.47709       77.77216      -11.71084
H          1.17357       75.72243      -10.33059
H          4.44965       78.38911       -9.55842
H          2.29636       77.37514       -8.86390
N          3.78577       78.77659      -15.28944
C          3.25401       80.13772      -15.38925
C          2.03044       80.32724      -16.28912
O          1.55455       81.44691      -16.38966
C          4.41048       80.93881      -16.00368
C          5.61723       80.20199      -15.48356
C          5.18838       78.75029      -15.66413
H          3.02349       80.47877      -14.35504
H          4.41864       80.78959      -17.11014
H          4.38041       82.02998      -15.79785
H          6.57851       80.46300      -15.97504
H          5.69793       80.41599      -14.39287
H          5.26821       78.42586      -16.72304
H          5.83089       78.13751      -15.01542
N          1.49206       79.29139      -16.99158
C          0.37713       79.40477      -17.91721
C         -0.81362       78.67444      -17.32567
O         -1.85302       79.29398      -17.14041
C          0.81283       78.82485      -19.28092
C          2.03412       79.58755      -19.83098
C          2.58557       79.00809      -21.09848
O          2.02026       77.93828      -21.68817
O          3.58662       79.50369      -21.58715
H          1.90525       78.36280      -16.91413
H          0.08419       80.46742      -18.06994
H         -0.02788       78.87765      -20.00603
H          1.09373       77.75852      -19.15003
H          2.85874       79.55231      -19.08780
H          1.76025       80.64995      -20.00779
N         -0.72168       77.37110      -16.94609
C         -1.79962       76.67111      -16.28539
H         -2.68905       76.62397      -16.94590
H         -1.47823       75.63663      -16.03566
H         -2.05920       77.19148      -15.33801
H          0.15347       76.85948      -17.09397
Ca         5.21520       77.43209      -22.66991
O          0.48076       76.50976      -23.87543
H          0.03777       77.15336      -23.26897
H         -0.17404       76.36602      -24.60301
O          2.99989       76.03802      -26.23446
H          2.55227       75.41434      -26.85878
H          2.30089       76.26450      -25.57620

Ca 1.0



