%chk=holoCaM-CaMKII.loop2.water2.frame214.chk
%nprocshared=20
%mem=10GB
%nosave
#b3lyp/svp scf=(tight,noincore,xqc) Test 
#IOP(5/87=12) Density=Current Pop=(MK,readradii) iop(6/33=2) iop(6/42=6)

holoCaM-CaMKII.loop2.water2.frame214 

   -2  1 
C         26.13656       46.42777       44.05379
C         25.60554       46.63774       45.44237
O         26.21973       47.37262       46.20132
H         27.14902       45.98045       44.09324
H         25.46923       45.77053       43.45698
H         26.19285       47.41199       43.53781
N         24.42517       46.07429       45.82402
C         23.73952       46.46540       47.04807
C         24.26461       45.76092       48.29103
O         24.40943       44.54737       48.26197
C         22.21375       46.25885       46.88083
C         21.48589       47.19342       47.79406
O         20.59216       46.80114       48.52291
O         21.88046       48.48710       47.79278
H         23.90944       45.51455       45.12692
H         23.89975       47.56096       47.14140
H         21.90999       45.19299       47.00070
H         21.92790       46.58421       45.86146
N         24.50563       46.46065       49.44248
C         24.98369       45.85179       50.68526
C         23.99683       45.97742       51.85100
O         24.29997       45.44525       52.91030
C         26.30576       46.51969       51.08228
H         24.33312       47.47355       49.44101
H         25.16991       44.76747       50.53183
H         27.05150       46.41330       50.26743
H         26.14527       47.60362       51.27811
H         26.72148       46.05470       52.00205
N         22.83313       46.68599       51.75973
C         21.91398       46.88768       52.88553
C         20.46350       46.57836       52.49195
O         19.83803       45.79722       53.19534
C         22.11678       48.27920       53.57576
C         22.03986       49.49687       52.70190
O         22.13518       50.62043       53.16742
O         21.93144       49.31810       51.39234
H         22.61549       47.14716       50.86962
H         22.16004       46.18309       53.71190
H         23.12688       48.29324       54.04127
H         21.36548       48.37430       54.38890
N         19.85990       47.13386       51.39626
C         18.47389       46.88650       51.01107
C         17.62904       48.15100       51.02646
O         16.44267       48.05343       50.74700
H         20.39365       47.75266       50.78127
H         17.99192       46.16256       51.70159
H         18.45091       46.44121       49.99376
N         18.14622       49.35957       51.39536
C         17.33302       50.55678       51.60967
C         16.63005       51.12194       50.37031
O         15.82067       52.02196       50.54729
C         18.18374       51.64205       52.32300
C         19.40855       52.10641       51.56688
N         20.24959       53.00347       52.12674
O         19.66280       51.66340       50.46133
H         19.14205       49.41186       51.64588
H         16.52806       50.27116       52.32177
H         18.54081       51.21168       53.28426
H         17.54978       52.52270       52.55695
H         20.06979       53.37964       53.06794
H         21.09083       53.31299       51.62075
N         16.88205       50.68450       49.10295
C         16.19783       51.20296       47.91967
C         17.04627       52.17247       47.11285
O         16.59145       52.60646       46.06425
H         17.60414       49.97266       48.95721
H         15.27366       51.75512       48.19849
H         15.88203       50.34230       47.29215
N         18.24139       52.62799       47.58318
C         19.03835       53.67413       46.95704
C         20.48580       53.25046       46.79468
O         21.10180       52.82539       47.76050
C         19.00999       54.94634       47.84387
C         17.63521       55.61258       47.82954
O         19.35396       54.64689       49.17522
H         18.57167       52.28721       48.48810
H         18.63193       53.96343       45.96222
H         19.71451       55.70452       47.42341
H         20.33960       54.72354       49.25486
H         17.36679       55.90366       46.79086
H         16.85663       54.93136       48.23050
H         17.66244       56.53298       48.45086
N         21.12961       53.47119       45.61524
C         22.58188       53.37535       45.47394
C         23.23350       54.35754       46.44461
O         22.92305       55.53924       46.40603
C         22.99893       53.65326       43.99086
C         22.55624       52.44588       43.11768
C         24.51797       53.89753       43.85182
C         22.76566       52.63428       41.61493
H         20.57906       53.82429       44.81728
H         22.92700       52.35145       45.72775
H         22.48985       54.58116       43.64488
H         21.47364       52.25170       43.26990
H         23.11334       51.53799       43.43953
H         25.09888       53.01783       44.19842
H         24.79386       54.13152       42.80453
H         24.82502       54.78788       44.43904
H         22.18505       53.50840       41.25391
H         23.83577       52.76430       41.35905
H         22.40844       51.72613       41.08386
N         24.19467       53.91611       47.30747
C         24.94799       54.78122       48.21284
C         26.31532       55.03864       47.60940
O         26.58275       54.53949       46.53603
C         25.08508       54.12006       49.59972
C         23.76065       53.87934       50.26161
O         22.95195       53.11453       49.76387
O         23.47477       54.48081       51.43174
H         24.48635       52.93365       47.24908
H         24.44914       55.76910       48.31646
H         25.68499       54.77950       50.26170
H         25.62024       53.14899       49.50736
N         27.21218       55.87362       48.21048
C         28.47676       56.22591       47.56891
C         29.43155       55.03916       47.44108
O         29.87566       54.80963       46.32040
C         29.12676       57.45225       48.24799
C         30.30183       57.98188       47.45392
C         31.57762       58.06270       48.03638
C         30.12936       58.41606       46.12400
C         32.65787       58.56346       47.30148
C         31.21230       58.90813       45.39280
C         32.47575       58.98309       45.98086
H         26.95132       56.33454       49.09226
H         28.21993       56.57218       46.54549
H         29.42853       57.22181       49.28499
H         28.37178       58.26611       48.30278
H         31.73681       57.74287       49.05832
H         29.15924       58.37791       45.64602
H         33.63740       58.62739       47.75622
H         31.06919       59.23423       44.37034
H         33.31218       59.36920       45.41315
N         29.80166       54.22172       48.48106
C         30.67243       53.05561       48.33719
C         30.23081       52.14266       47.20757
O         31.03952       51.71755       46.39856
C         30.50199       52.30543       49.67016
C         30.25553       53.43401       50.63695
C         29.30376       54.32428       49.84294
H         31.72520       53.39383       48.20534
H         29.56046       51.70861       49.66627
H         31.33765       51.61882       49.92497
H         29.87551       53.12702       51.63522
H         31.21933       53.97573       50.76707
H         28.26044       53.93887       49.86493
H         29.35032       55.33647       50.27596
N         28.91034       51.83437       47.11474
C         28.31084       50.95312       46.12240
C         28.57586       51.47926       44.72105
O         29.06227       50.73236       43.88317
C         26.78882       50.83365       46.39714
C         26.49819       50.27398       47.81625
C         25.03937       50.19788       48.15815
O         24.67980       49.85807       49.40924
O         24.17798       50.47423       47.34133
H         28.29117       52.28972       47.79612
H         28.74230       49.93182       46.21665
H         26.32844       50.16315       45.63932
H         26.32489       51.83759       46.30001
H         26.93922       50.92363       48.59454
H         26.94899       49.26594       47.92925
N         28.31905       52.77767       44.41185
C         28.57164       53.35404       43.11147
H         29.64362       53.24083       42.84510
H         27.93407       52.86246       42.34859
H         28.32932       54.43979       43.13157
H         27.96119       53.39619       45.14031
Ca        21.62318       50.06090       49.35583
O         19.59241       49.99060       47.41081
H         19.43646       49.20675       47.99487
H         18.97166       49.86228       46.65336
O         21.63957       49.75829       45.42626
H         22.58732       50.03543       45.39236
H         21.62937       48.87378       44.98362

Ca 1.0



