%chk=holoCaM-CaMKII.loop2.water2.frame345.chk
%nprocshared=20
%mem=10GB
%nosave
#b3lyp/svp scf=(tight,noincore,xqc) Test 
#IOP(5/87=12) Density=Current Pop=(MK,readradii) iop(6/33=2) iop(6/42=6)

holoCaM-CaMKII.loop2.water2.frame345 

   -2  1 
C         23.90943       67.12569       69.00201
C         24.41351       68.35876       69.69248
O         25.51997       68.79582       69.41815
H         22.97991       67.37598       68.44504
H         24.65739       66.73913       68.27810
H         23.67999       66.33874       69.74937
N         23.61455       68.99944       70.58444
C         23.95880       70.27426       71.20010
C         25.13760       70.16090       72.16168
O         25.06178       69.35892       73.08270
C         22.73448       70.81245       71.97592
C         22.89583       72.24891       72.37302
O         23.86501       72.88708       72.00037
O         21.93509       72.85687       73.09282
H         22.68188       68.59560       70.76681
H         24.18065       70.99216       70.37898
H         22.55513       70.18475       72.87597
H         21.82715       70.76425       71.33911
N         26.22885       70.97929       72.04499
C         27.34193       70.96799       72.99387
C         27.54777       72.30201       73.71919
O         28.34889       72.31342       74.64429
C         28.63066       70.58698       72.25772
H         26.26593       71.64038       71.25919
H         27.15838       70.20453       73.78047
H         29.48589       70.52771       72.96514
H         28.51337       69.59727       71.76822
H         28.86718       71.34404       71.47795
N         26.93578       73.46823       73.34176
C         27.23345       74.76154       73.96839
C         25.99307       75.59797       74.31564
O         26.16938       76.68697       74.84485
C         28.24619       75.52489       73.08685
C         27.82945       75.67076       71.64964
O         26.72692       76.35884       71.32190
O         28.50470       75.16817       70.76555
H         26.34174       73.47405       72.50321
H         27.75494       74.60978       74.93969
H         29.19918       74.95019       73.10522
H         28.45761       76.52472       73.52404
N         24.71916       75.15272       74.11249
C         23.52606       75.87555       74.54202
C         23.25040       77.20002       73.84622
O         22.31400       77.86457       74.26797
H         24.57822       74.21773       73.73008
H         23.61583       76.06471       75.63388
H         22.63301       75.23172       74.38850
N         23.99971       77.67382       72.80844
C         23.80033       79.01268       72.24865
C         22.44166       79.24006       71.57934
O         22.12908       80.39216       71.31238
C         24.94867       79.40590       71.29046
C         25.07333       78.57428       70.03761
N         26.00333       78.90831       69.11617
O         24.35251       77.60760       69.84495
H         24.77775       77.10399       72.46438
H         23.85932       79.71907       73.10684
H         25.91519       79.34636       71.83657
H         24.79788       80.46250       70.98124
H         26.62355       79.71677       69.25989
H         26.10005       78.37206       68.24898
N         21.59416       78.21834       71.26426
C         20.26309       78.41503       70.70161
C         20.10712       77.88254       69.28852
O         18.98488       77.88686       68.80218
H         21.88598       77.25234       71.44206
H         19.97854       79.48940       70.67824
H         19.54110       77.89711       71.36769
N         21.17412       77.48049       68.53944
C         21.07466       77.05190       67.14436
C         21.76220       75.71073       66.92635
O         22.36056       75.17093       67.84532
C         21.74557       78.12398       66.23569
C         20.98975       79.45223       66.26739
O         23.07640       78.34871       66.62965
H         22.11506       77.54835       68.94296
H         20.01266       76.94189       66.83195
H         21.72133       77.80961       65.16791
H         23.62448       77.62296       66.23246
H         21.48480       80.17794       65.58649
H         19.94586       79.30371       65.91646
H         20.97480       79.88096       67.29047
N         21.78535       75.17024       65.67536
C         22.63356       74.05477       65.28155
C         23.80750       74.66135       64.54689
O         23.60351       75.39891       63.59081
C         21.85585       73.02877       64.39999
C         20.79283       72.29887       65.25948
C         22.82662       72.01500       63.74943
C         19.90760       71.33287       64.46536
H         21.29324       75.66778       64.91761
H         23.03604       73.51396       66.16476
H         21.35055       73.57925       63.57480
H         20.12466       73.05179       65.72868
H         21.29779       71.72919       66.07096
H         23.37866       71.43899       64.52178
H         22.29649       71.31364       63.07636
H         23.55892       72.53585       63.09960
H         19.37211       71.87539       63.65832
H         20.49436       70.50188       64.02434
H         19.15944       70.87517       65.14587
N         25.07824       74.36449       64.93587
C         26.25422       74.88620       64.26043
C         26.74770       73.87954       63.24102
O         26.18881       72.79923       63.15381
C         27.33657       75.26157       65.29528
C         26.90894       76.44352       66.13293
O         25.94600       76.36160       67.07410
O         27.47018       77.51425       65.97235
H         25.22042       73.66417       65.67928
H         25.99163       75.79262       63.67058
H         28.24839       75.56273       64.73799
H         27.60833       74.39172       65.93564
N         27.75064       74.19667       62.37421
C         28.20998       73.28442       61.33170
C         28.77968       71.99531       61.92809
O         28.31570       70.94338       61.51296
C         29.20316       73.98455       60.37079
C         29.71491       73.04642       59.30210
C         28.84405       72.49975       58.34255
C         31.07798       72.70388       59.26459
C         29.33192       71.62515       57.36570
C         31.55934       71.82554       58.29050
C         30.68768       71.28677       57.34133
H         28.17440       75.13550       62.43394
H         27.33437       73.01216       60.69829
H         30.05624       74.40393       60.92407
H         28.70515       74.85175       59.88432
H         27.79113       72.75155       58.34710
H         31.76743       73.10804       59.99555
H         28.65893       71.20799       56.62773
H         32.60883       71.56171       58.27355
H         31.06342       70.60714       56.58751
N         29.75896       71.96162       62.89132
C         30.29895       70.72907       63.46273
C         29.22870       69.76955       63.95369
O         29.25306       68.60034       63.59712
C         31.13774       71.22004       64.65377
C         31.62769       72.55491       64.15737
C         30.37047       73.12206       63.51176
H         30.94812       70.24182       62.70112
H         30.48329       71.44811       65.52588
H         31.92389       70.51006       64.98620
H         32.08672       73.21379       64.92440
H         32.37611       72.35983       63.35471
H         29.66278       73.53850       64.26081
H         30.70158       73.90714       62.81802
N         28.24232       70.22531       64.77060
C         27.16573       69.40154       65.31616
C         26.35480       68.76721       64.20181
O         26.08916       67.57574       64.26549
C         26.23902       70.26472       66.18998
C         26.96494       70.85219       67.41888
C         26.10113       71.83950       68.13586
O         26.64946       72.65059       69.04726
O         24.95913       72.06205       67.76531
H         28.25008       71.23304       64.98840
H         27.58211       68.60070       65.96686
H         25.37846       69.65912       66.55186
H         25.84281       71.09475       65.56058
H         27.85772       71.42271       67.09500
H         27.31145       70.05675       68.10959
N         25.95510       69.50939       63.13359
C         25.18343       68.99374       62.02415
H         24.27217       69.61502       61.89666
H         25.79015       69.05843       61.09590
H         24.87624       67.93936       62.17811
H         26.24237       70.48940       63.08198
Ca        25.91792       74.68313       68.54719
O         22.01130       72.26911       69.08959
H         22.45034       72.60632       68.27171
H         21.95690       71.29129       68.94803
O         22.46739       74.93552       70.63666
H         22.78731       75.16183       71.54557
H         21.48299       74.87677       70.72605

Ca 1.0



