%chk=holoCaM.loop4.water3.frame310.chk
%nprocshared=20
%mem=10GB
%nosave
#b3lyp/svp scf=(tight,noincore,xqc) Test 
#IOP(5/87=12) Density=Current Pop=(MK,readradii) iop(6/33=2) iop(6/42=6)

holoCaM.loop4.water3.frame310 

   -3  1 
C         12.87230       45.69656       80.47257
C         11.81169       46.74666       80.61622
O         10.64533       46.41534       80.46596
H         13.88454       46.11076       80.65976
H         12.68225       44.88927       81.21234
H         12.84010       45.26486       79.45075
N         12.13854       48.03986       80.90631
C         11.13832       49.08019       81.13232
C         11.80608       50.44377       81.21484
O         12.61092       50.66629       82.10929
C         10.34261       48.75340       82.42325
C          9.37001       49.80235       82.90718
O          9.49105       50.24050       84.03996
O          8.34888       50.25139       82.15110
H         13.13831       48.28825       80.97137
H         10.45635       49.08902       80.26398
H         11.07595       48.57180       83.24038
H          9.77083       47.81611       82.27661
N         11.50798       51.40445       80.28914
C         12.08594       52.74444       80.27939
C         11.02713       53.83208       80.49900
O         11.42351       54.98168       80.62299
C         12.90957       52.98731       78.96636
C         12.04751       52.85073       77.67678
C         14.12531       52.04141       78.92992
C         12.79332       53.21651       76.38668
H         10.83592       51.17261       79.54823
H         12.78845       52.85415       81.13477
H         13.30793       54.02579       79.00860
H         11.17337       53.53162       77.75310
H         11.67332       51.81120       77.56551
H         14.73573       52.17047       79.84857
H         13.80355       50.98096       78.85812
H         14.79185       52.27150       78.07403
H         12.10112       53.13230       75.52159
H         13.16926       54.26010       76.43679
H         13.64133       52.52893       76.19135
N          9.68161       53.56721       80.54975
C          8.66501       54.60926       80.74560
C          7.62822       54.27948       81.83387
O          6.73067       55.08730       82.03379
C          7.99300       54.94516       79.39527
C          7.24505       53.82607       78.72813
O          7.18313       52.60082       79.27348
O          6.68846       54.03394       77.66257
H          9.35622       52.60887       80.37909
H          9.15144       55.55719       81.06266
H          8.78253       55.29019       78.69236
H          7.28720       55.79008       79.55013
N          7.69189       53.14997       82.59774
C          6.75390       52.83702       83.67788
C          5.31091       52.54275       83.26326
O          4.48985       52.37989       84.15487
H          8.49339       52.52595       82.47413
H          6.75133       53.69411       84.38613
H          7.12152       51.94785       84.23437
N          4.91023       52.49069       81.96122
C          3.50464       52.39060       81.54541
C          2.83469       51.01448       81.70383
O          1.67752       50.90510       81.31919
C          3.34957       52.90695       80.09329
C          4.07720       52.12206       79.03548
O          4.86079       51.07598       79.35219
O          3.97708       52.46066       77.86763
H          5.61841       52.65756       81.23807
H          2.91686       53.11128       82.15653
H          3.72164       53.95419       80.05367
H          2.26879       52.92616       79.83479
N          3.44975       49.93217       82.26184
C          2.79041       48.63149       82.40170
C          2.61169       47.86242       81.09486
O          2.06272       46.77044       81.14384
H          4.39074       50.04012       82.65682
H          1.80459       48.76966       82.89946
H          3.40610       47.98565       83.06337
N          3.06139       48.34485       79.90196
C          2.95716       47.65030       78.61921
C          4.34708       47.43642       78.02836
O          5.32154       47.85374       78.64177
C          2.07800       48.49289       77.67160
C          0.63167       48.57168       78.18833
C         -0.23972       49.40749       77.28735
N         -0.90161       50.48468       77.77231
O         -0.36481       49.10007       76.11116
H          3.51050       49.26131       79.88528
H          2.49310       46.64640       78.74117
H          2.05720       48.03188       76.66128
H          2.50930       49.51537       77.57914
H          0.61968       48.99657       79.21472
H          0.20860       47.54488       78.23368
H         -0.82310       50.75371       78.76410
H         -1.50683       51.04745       77.15637
N          4.51762       46.77243       76.84278
C          5.83207       46.51469       76.25488
C          5.93250       47.20424       74.89824
O          5.17771       46.87335       73.99391
C          6.09605       44.98530       76.13847
C          7.51509       44.70520       75.61192
C          5.92920       44.28389       77.49684
H          3.68783       46.41743       76.34292
H          6.62245       46.92326       76.91575
H          5.36111       44.53948       75.43224
H          7.66485       45.15729       74.61127
H          8.27536       45.11505       76.31057
H          7.68589       43.61185       75.51512
H          4.89543       44.40912       77.88085
H          6.11633       43.19339       77.39048
H          6.64193       44.69486       78.24338
N          6.86670       48.17676       74.69674
C          7.06569       48.89381       73.43566
C          8.05553       48.13305       72.55034
O          8.53232       47.08586       72.95665
C          7.56787       50.32232       73.79189
C          7.75641       51.26997       72.63515
N          6.72075       51.59820       71.82814
O          8.85967       51.75294       72.42753
H          7.48044       48.42347       75.48729
H          6.09506       48.98885       72.90126
H          8.52895       50.23395       74.34753
H          6.82225       50.79403       74.46159
H          5.78219       51.20504       71.98574
H          6.86138       52.24399       71.03692
N          8.42264       48.61228       71.32584
C          9.45279       48.00873       70.48478
C         10.78096       47.98336       71.22019
O         11.41106       46.93705       71.28992
C          9.70794       48.81019       69.17831
C          8.57352       48.86714       68.18045
C          8.63009       48.06783       67.02447
C          7.49276       49.75468       68.33860
C          7.62430       48.14231       66.05832
C          6.49023       49.83033       67.36833
C          6.55308       49.02395       66.22421
O          5.59922       49.09665       65.27467
H          7.97831       49.46542       70.99286
H          9.15630       46.97290       70.20376
H         10.56344       48.30027       68.67936
H         10.05250       49.84697       69.38627
H          9.45681       47.38609       66.86640
H          7.42596       50.41780       69.18607
H          7.68504       47.52039       65.17441
H          5.67209       50.52695       67.50165
H          4.85094       49.70643       65.34394
N         11.27369       49.13374       71.76608
C         12.59309       49.25933       72.38698
C         12.77017       48.41446       73.64591
O         13.85492       48.43921       74.21156
C         12.89158       50.74398       72.72799
C         12.81433       51.69730       71.51745
C         13.72680       51.27329       70.40187
O         13.26661       51.00420       69.30335
O         15.05387       51.18078       70.60892
H         10.68396       49.97276       71.69060
H         13.35276       48.91918       71.65039
H         13.91720       50.81542       73.15300
H         12.17714       51.10093       73.50315
H         13.09780       52.71925       71.84679
H         11.77403       51.75949       71.13649
N         11.77292       47.62682       74.13025
C         11.88354       46.79613       75.31403
C         11.88297       45.34104       74.89387
O         12.81823       44.62690       75.22782
C         10.69968       47.09676       76.23726
C         10.64639       48.57738       76.64048
C          9.46838       48.85472       77.51710
O          9.27199       50.08666       77.99747
O          8.72021       47.95851       77.86879
H         10.86931       47.60034       73.65295
H         12.82682       46.99983       75.87024
H         10.77120       46.45975       77.14760
H          9.75267       46.85605       75.70744
H         10.57113       49.22697       75.74336
H         11.57113       48.84214       77.19957
N         10.87912       44.83861       74.12325
C         10.86714       43.47310       73.65371
H          9.97694       43.30735       73.00929
H         11.77885       43.27435       73.05078
H         10.82352       42.77548       74.51500
H         10.10536       45.44726       73.83312
Ca         8.19097       49.99704       79.94453
O          7.60056       46.63896       80.07164
H          8.20821       47.37016       80.34470
H          7.43080       46.13912       80.90751
O          6.49535       50.58863       77.03064
H          5.57266       50.37236       76.74448
H          6.64237       51.51497       76.71403
O          6.19142       48.44063       81.93503
H          6.35083       48.76556       82.85667
H          5.68764       47.59824       82.05585

Ca 1.0



