%chk=holoCaM-CaMKII.loop4.water1.frame382.chk
%nprocshared=20
%mem=10GB
%nosave
#b3lyp/svp scf=(tight,noincore,xqc) Test 
#IOP(5/87=12) Density=Current Pop=(MK,readradii) iop(6/33=2) iop(6/42=6)

holoCaM-CaMKII.loop4.water1.frame382 

   -3  1 
C         72.85512       78.19344       73.90361
C         74.32170       78.50632       73.79127
O         74.95914       78.03869       72.86196
H         72.32026       78.54911       72.99924
H         72.71511       77.09689       74.00740
H         72.40227       78.68257       74.79314
N         74.92185       79.29711       74.72098
C         76.34408       79.63728       74.73392
C         77.18722       78.38378       74.88761
O         76.95055       77.62279       75.81513
C         76.58192       80.63362       75.88820
C         77.99363       81.09928       76.11405
O         78.39176       81.19602       77.26294
O         78.80135       81.51898       75.12076
H         74.32402       79.67894       75.47081
H         76.59862       80.15327       73.78561
H         76.21719       80.18624       76.84074
H         75.96492       81.53424       75.68600
N         78.20074       78.11587       74.01132
C         79.01173       76.90308       74.06004
C         80.42210       77.26985       74.51617
O         80.85983       76.77528       75.54527
C         78.98392       76.17461       72.67019
C         77.52071       75.96557       72.19313
C         79.74415       74.83777       72.73739
C         77.37927       75.29973       70.82154
H         78.41185       78.80237       73.27436
H         78.59073       76.19725       74.81042
H         79.48817       76.81116       71.91350
H         77.04899       76.96140       72.09829
H         76.94938       75.37415       72.94015
H         79.78899       74.35537       71.73889
H         80.79408       74.99867       73.05630
H         79.24915       74.14329       73.44869
H         77.73120       74.24912       70.84247
H         76.30662       75.28597       70.53022
H         77.94599       75.86429       70.05315
N         81.19055       78.13066       73.79131
C         82.56927       78.48805       74.12382
C         82.71565       79.46865       75.30121
O         83.84767       79.78355       75.64121
C         83.31158       78.95178       72.84899
C         82.79105       80.19910       72.19623
O         81.77485       80.90660       72.72763
O         83.29986       80.56704       71.15048
H         80.80365       78.47672       72.91159
H         83.10080       77.55271       74.40909
H         83.23638       78.12904       72.10180
H         84.38915       79.09839       73.07654
N         81.64739       79.92603       76.02185
C         81.78666       80.66337       77.27711
C         82.20837       82.11672       77.15194
O         83.22977       82.48580       77.71319
H         80.69888       79.62349       75.76255
H         82.48877       80.11119       77.94025
H         80.80673       80.67057       77.79431
N         81.42841       83.01130       76.48172
C         81.68970       84.44956       76.40740
C         80.43630       85.31139       76.65055
O         80.52430       86.52023       76.47796
C         82.36281       84.79318       75.06591
C         81.57562       84.48247       73.82745
O         82.03882       84.80056       72.74708
O         80.38340       83.86232       73.87586
H         80.61639       82.64603       75.98272
H         82.43585       84.74611       77.17758
H         83.32679       84.24309       75.00297
H         82.59759       85.88010       75.06426
N         79.25303       84.78594       77.08966
C         78.06332       85.58621       77.36026
C         77.27444       86.00910       76.12883
O         76.21831       86.59186       76.31397
H         79.20254       83.78765       77.33173
H         78.32349       86.46834       77.98682
H         77.36096       84.96006       77.95309
N         77.68891       85.72993       74.85704
C         76.88162       86.01225       73.66376
C         76.64034       84.72190       72.89576
O         77.24614       83.72163       73.23111
C         77.54828       87.12501       72.81705
C         78.96929       86.81919       72.29642
C         78.97894       85.85180       71.14294
N         78.42197       86.20081       69.96098
O         79.51807       84.76260       71.25898
H         78.59264       85.27101       74.72438
H         75.88448       86.39359       73.96968
H         77.62898       88.00976       73.48499
H         76.89052       87.41693       71.96978
H         79.60524       86.46140       73.13009
H         79.43145       87.75950       71.92706
H         77.99405       87.12906       69.83209
H         78.44133       85.55240       69.16390
N         75.71742       84.65677       71.88623
C         75.46029       83.42127       71.14357
C         75.56021       83.71056       69.65134
O         74.73190       84.44408       69.13377
C         74.06094       82.83659       71.51605
C         73.79843       81.49578       70.80718
C         73.93028       82.61304       73.03224
H         75.15509       85.49078       71.66960
H         76.21257       82.64891       71.41352
H         73.27026       83.55757       71.21199
H         74.55687       80.73834       71.10143
H         72.79260       81.10532       71.07446
H         73.82062       81.62003       69.70987
H         72.92436       82.20615       73.27527
H         74.69774       81.89592       73.39138
H         74.04368       83.56854       73.58449
N         76.55609       83.16014       68.89447
C         76.64069       83.33357       67.44341
C         75.48795       82.62844       66.74890
O         74.70290       81.95880       67.39843
C         77.95117       82.71305       66.89552
C         79.18810       83.45167       67.31755
N         80.16781       82.82727       68.00673
O         79.32984       84.62055       66.99122
H         77.27355       82.59855       69.36537
H         76.61452       84.41716       67.19400
H         77.96064       82.73523       65.78644
H         78.00204       81.64994       67.20746
H         80.08295       81.83691       68.27875
H         81.02578       83.34044       68.24961
N         75.35475       82.70610       65.39758
C         74.39342       81.91110       64.64344
C         74.72162       80.43184       64.78457
O         73.85256       79.65883       65.16064
C         74.44434       82.30706       63.15243
C         73.55140       81.42981       62.30711
C         72.16465       81.38563       62.52869
C         74.11176       80.62869       61.29816
C         71.35441       80.54903       61.75534
C         73.30037       79.79522       60.52614
C         71.91775       79.75148       60.75320
O         71.12414       78.94781       60.01763
H         75.99518       83.32749       64.87909
H         73.36477       82.10971       65.01894
H         75.49443       82.22349       62.79435
H         74.13819       83.36933       63.03995
H         71.71119       81.99198       63.30247
H         75.17889       80.64213       61.11273
H         70.28777       80.51865       61.93784
H         73.74910       79.18187       59.75514
H         71.47665       78.38048       59.31710
N         75.97541       79.98310       64.49005
C         76.38863       78.58235       64.55088
C         76.03223       77.95613       65.88338
O         75.45059       76.88024       65.90902
C         77.90755       78.45251       64.23571
C         78.84631       79.11679       65.26436
C         80.27627       79.10433       64.81065
O         80.85073       78.04820       64.60129
O         80.93962       80.26657       64.65295
H         76.67668       80.68604       64.21354
H         75.85049       78.01910       63.75673
H         78.08134       78.91721       63.24057
H         78.17769       77.37608       64.16038
H         78.79099       78.57569       66.23044
H         78.55116       80.17287       65.42096
N         76.32809       78.60664       67.03477
C         76.05809       78.07274       68.35858
C         74.56867       77.87870       68.57193
O         74.15653       76.78036       68.91810
C         76.68108       78.98835       69.42525
C         78.20972       79.07757       69.22185
C         78.84081       79.77439       70.36528
O         79.66985       79.19541       71.03650
O         78.45456       81.00720       70.71190
H         76.76733       79.53398       66.95623
H         76.55927       77.08558       68.46452
H         76.46948       78.54950       70.42402
H         76.23566       80.00824       69.39137
H         78.47111       79.62611       68.29995
H         78.63861       78.05361       69.15363
N         73.69537       78.89256       68.33788
C         72.26426       78.73815       68.47576
H         71.75312       79.67800       68.17449
H         71.90620       77.91906       67.81543
H         72.00525       78.51032       69.53044
H         74.05572       79.79450       68.01438
Ca        78.60078       81.39516       72.89722
O         82.18556       83.30071       70.47222
H         81.81438       82.40831       70.26047
H         82.99548       83.11743       71.01035

Ca 1.0



