%chk=holoCaM-CaMKII.loop1.water2.frame244.chk
%nprocshared=20
%mem=10GB
%nosave
#b3lyp/svp scf=(tight,noincore,xqc) Test 
#IOP(5/87=12) Density=Current Pop=(MK,readradii) iop(6/33=2) iop(6/42=6)

holoCaM-CaMKII.loop1.water2.frame244 

   0  1 
C          4.47192      112.10078       45.85757
C          5.22235      113.25761       45.27124
O          5.25937      113.39467       44.05863
H          3.40957      112.14587       45.54241
H          4.92695      111.15246       45.50465
H          4.51240      112.11642       46.96802
N          5.82948      114.15789       46.08291
C          6.58815      115.28721       45.57324
C          7.92187      114.81028       45.00297
O          8.73468      114.28911       45.75500
C          6.81149      116.25784       46.73310
C          7.48395      117.52043       46.36441
O          7.78579      117.79262       45.21729
O          7.73710      118.38020       47.34712
H          5.71237      114.05230       47.10343
H          5.97493      115.81185       44.80394
H          7.41746      115.76083       47.52110
H          5.82774      116.53977       47.16818
N          8.19905      114.92319       43.67336
C          9.42408      114.39513       43.07433
C         10.66138      115.27103       43.30502
O         11.73373      114.83304       42.90980
C          9.22370      114.17494       41.55721
C          8.06681      113.23332       41.12761
C          8.18058      111.77217       41.61511
C          7.55256      111.52772       42.99931
N          7.75798      110.15206       43.44499
H          7.46192      115.28954       43.05632
H          9.65713      113.40836       43.51926
H         10.16246      113.75484       41.13244
H          9.05187      115.16254       41.07413
H          8.13330      113.20619       40.01755
H          7.06371      113.64393       41.37403
H          9.24192      111.44819       41.56861
H          7.60009      111.13055       40.91541
H          6.46409      111.71158       42.90960
H          7.94756      112.20123       43.77594
H          7.34580      109.48028       42.75846
H          8.78091      109.96734       43.55916
H          7.28803      110.02320       44.37100
N         10.61003      116.50952       43.88781
C         11.78517      117.37916       44.02753
C         12.06325      117.79979       45.46917
O         13.05606      118.48143       45.68915
C         11.57962      118.68094       43.21819
C         11.17866      118.45259       41.78808
O         10.00073      117.86547       41.50062
O         11.88869      118.85095       40.87954
H          9.70246      116.88092       44.18038
H         12.69098      116.86088       43.64309
H         12.52537      119.26923       43.24718
H         10.78277      119.29322       43.69359
N         11.20962      117.51102       46.48981
C         11.35911      118.06262       47.82819
C         11.28091      119.58270       47.80832
O         12.11675      120.24705       48.40162
H         10.37765      116.93016       46.31766
H         12.29713      117.70989       48.30699
H         10.50528      117.69440       48.44091
N         10.24705      120.17900       47.15874
C          9.94194      121.61080       47.12140
C          8.66946      121.90653       47.93086
O          8.19659      123.03370       47.91601
C          9.78610      122.03625       45.63235
C          8.68388      121.28972       44.90643
O          7.83458      120.67452       45.52560
O          8.69961      121.15477       43.57608
H          9.60445      119.55092       46.66971
H         10.76726      122.20313       47.57290
H         10.74808      121.79744       45.12772
H          9.62204      123.13080       45.52685
N          8.07282      120.92379       48.66724
C          6.85106      121.04503       49.44000
C          5.61959      121.37761       48.62137
O          4.82236      122.15914       49.11042
H          8.52713      120.00829       48.73407
H          6.98517      121.78197       50.26031
H          6.65978      120.05647       49.91368
N          5.34561      120.75206       47.43581
C          4.12012      120.95093       46.64002
C          3.99628      119.90872       45.51296
O          4.95479      119.21001       45.21352
C          4.00874      122.37161       45.99060
C          3.78502      123.55948       46.93367
O          5.10662      122.62905       45.15317
H          6.02504      120.05201       47.12399
H          3.25529      120.76469       47.31335
H          3.09446      122.36230       45.35893
H          5.90995      122.70917       45.73137
H          2.92288      123.35940       47.60617
H          4.69305      123.80537       47.51522
H          3.55703      124.46678       46.33659
N          2.79662      119.73076       44.87210
C          2.57379      118.73329       43.82262
C          1.97235      119.40775       42.58867
O          0.86484      119.92133       42.67342
C          1.61438      117.61111       44.34096
C          2.16015      116.95740       45.63761
C          1.38976      116.53849       43.25294
C          1.16006      116.00195       46.29841
H          1.98589      120.28830       45.18127
H          3.53608      118.24756       43.54597
H          0.63566      118.08208       44.58491
H          2.36518      117.74761       46.38917
H          3.11236      116.42177       45.42841
H          0.94290      116.98872       42.35098
H          2.34999      116.05190       42.97683
H          0.67447      115.75881       43.57758
H          0.93127      115.12658       45.65955
H          1.58652      115.61795       47.24827
H          0.21611      116.54131       46.53066
N          2.63731      119.41281       41.39742
C          2.04345      119.89699       40.14379
C          1.13092      118.84258       39.55067
O          1.05791      117.73633       40.05535
C          3.14344      120.24874       39.10114
C          3.85904      121.54321       39.49716
O          4.03591      119.17239       38.99050
H          3.57587      118.99338       41.37339
H          1.43324      120.80738       40.33832
H          2.70443      120.43365       38.09640
H          4.78894      119.45246       38.40847
H          4.17275      121.50553       40.54743
H          4.74555      121.72361       38.85329
H          3.16338      122.40056       39.37392
N          0.40197      119.13528       38.44318
C         -0.44080      118.16857       37.74910
C          0.42859      117.04631       37.18477
O          0.14828      115.88299       37.43326
C         -1.23856      118.90460       36.64335
C         -2.23006      117.98639       35.92719
O         -1.96149      119.95351       37.24081
H          0.45766      120.09693       38.07309
H         -1.18680      117.74878       38.46173
H         -0.51487      119.31698       35.90012
H         -2.05132      120.67436       36.56443
H         -2.78696      118.57113       35.16372
H         -1.70403      117.15381       35.41776
H         -2.96153      117.57184       36.65397
N          1.53194      117.34973       36.44435
C          2.45421      116.37220       35.86122
C          3.00871      115.40042       36.90559
O          2.94955      114.20322       36.66136
C          3.52780      117.13897       35.05041
C          4.57280      116.25255       34.35257
C          5.24616      116.95571       33.15207
C          5.84491      118.34100       33.44987
N          6.45067      118.91022       32.24311
H          1.73442      118.35127       36.29640
H          1.89944      115.75917       35.11541
H          4.05696      117.88639       35.68288
H          2.96027      117.68902       34.26621
H          4.08260      115.34680       33.93479
H          5.32387      115.92482       35.10410
H          4.47975      117.08652       32.35624
H          6.03791      116.28434       32.75348
H          6.61047      118.26615       34.25130
H          5.03882      119.02676       33.79211
H          5.74479      118.96589       31.47206
H          6.79290      119.87652       32.44920
H          7.25853      118.32255       31.93410
N          3.47640      115.82260       38.11578
C          3.89943      114.90457       39.18781
C          2.77517      113.93073       39.50614
O          2.98372      112.73223       39.37412
C          4.34088      115.70759       40.44781
C          5.65559      116.44943       40.14144
C          6.02053      117.57743       41.06773
O          6.06030      118.70477       40.61344
O          6.42112      117.41084       42.33842
H          3.46978      116.83513       38.29672
H          4.77217      114.30254       38.84413
H          4.50660      115.04106       41.32453
H          3.52968      116.42264       40.70541
H          5.56086      116.91583       39.14186
H          6.49525      115.72505       40.07762
N          1.54381      114.37662       39.87476
C          0.40700      113.50629       40.10161
H         -0.40251      113.77273       39.38838
H          0.65415      112.43393       39.95353
H          0.03257      113.64669       41.13594
H          1.38903      115.38499       39.96983
Ca         7.52102      119.31939       42.93370
O          5.35662      121.07141       42.64274
H          4.55806      121.58583       42.91869
H          5.84294      121.67164       42.02243
O          8.08485      120.40215       40.20499
H          9.01240      120.49338       40.53598
H          7.79319      121.32367       39.99379

Ca 1.0



