%chk=holoCaM.loop2.water1.frame373.chk
%nprocshared=20
%mem=10GB
%nosave
#b3lyp/svp scf=(tight,noincore,xqc) Test 
#IOP(5/87=12) Density=Current Pop=(MK,readradii) iop(6/33=2) iop(6/42=6)

holoCaM.loop2.water1.frame373 

   -2  1 
C        -14.05681       15.32735       71.90520
C        -13.83518       14.03040       72.62577
O        -13.28239       13.11661       72.02967
H        -14.57555       16.06788       72.54908
H        -13.07933       15.75066       71.59215
H        -14.67844       15.14576       71.00320
N        -14.23220       13.87350       73.92111
C        -14.03664       12.62516       74.64700
C        -14.86378       11.52528       73.99420
O        -16.07782       11.65828       73.92025
C        -14.41974       12.79704       76.13656
C        -14.10128       11.58807       76.98409
O        -14.38758       11.58959       78.29070
O        -13.58787       10.59581       76.50767
H        -14.66958       14.67279       74.40603
H        -12.95206       12.38103       74.61578
H        -15.50335       13.03069       76.21828
H        -13.85305       13.65448       76.55959
N        -14.26006       10.42221       73.46699
C        -14.99066        9.37160       72.76364
C        -15.98312        8.60310       73.63792
O        -16.80115        7.89491       73.06784
C        -14.01135        8.40355       72.09073
H        -13.23542       10.37059       73.50504
H        -15.57197        9.87135       71.95704
H        -14.55812        7.64688       71.48987
H        -13.34033        8.96798       71.40665
H        -13.38855        7.88642       72.85159
N        -16.00407        8.70603       75.00144
C        -17.06259        8.13211       75.84034
C        -17.88155        9.22300       76.53086
O        -18.96050        8.90617       77.01139
C        -16.51829        7.08059       76.83289
C        -15.34157        7.57173       77.61611
O        -15.41301        8.55782       78.32780
O        -14.16495        6.95864       77.43099
H        -15.26401        9.24417       75.46128
H        -17.79603        7.60075       75.19661
H        -16.17333        6.20126       76.24475
H        -17.31986        6.73164       77.51858
N        -17.46801       10.52384       76.59387
C        -18.30870       11.62634       77.03675
C        -17.93509       12.19089       78.39220
O        -18.48425       13.22073       78.75592
H        -16.53105       10.77863       76.27183
H        -19.37673       11.32792       77.08751
H        -18.23182       12.42295       76.26477
N        -17.09306       11.53433       79.23705
C        -16.84962       11.95482       80.61749
C        -15.91649       13.15922       80.76326
O        -15.62885       13.51201       81.89964
C        -16.31538       10.75575       81.43765
C        -17.33631        9.63826       81.48589
N        -17.03815        8.39640       81.04124
O        -18.44872        9.86083       81.94163
H        -16.71956       10.62460       78.93598
H        -17.81952       12.23455       81.08728
H        -16.13333       11.07206       82.48727
H        -15.35081       10.40258       81.01089
H        -16.10375        8.17599       80.67368
H        -17.74515        7.64656       81.07511
N        -15.42963       13.87186       79.70392
C        -14.56605       15.03250       79.88626
C        -13.15573       14.69674       80.34793
O        -12.40973       15.62598       80.62088
H        -15.72067       13.64124       78.74539
H        -15.05029       15.72552       80.60849
H        -14.46416       15.57365       78.92077
N        -12.69440       13.41381       80.39553
C        -11.33111       13.04217       80.75691
C        -10.64578       12.52170       79.50248
O        -11.13719       11.56615       78.91573
C        -11.38965       11.98606       81.88366
C        -10.00307       11.52696       82.34054
O        -12.07899       12.52927       82.98124
H        -13.31746       12.64800       80.11852
H        -10.76710       13.92460       81.13181
H        -11.94541       11.10387       81.49008
H        -12.52027       11.77412       83.45210
H        -10.11238       10.76274       83.14014
H         -9.44274       11.06745       81.49968
H         -9.42450       12.38452       82.74367
N         -9.52515       13.13210       79.00836
C         -8.95741       12.79002       77.70623
C         -7.86145       11.74538       77.85383
O         -6.81951       12.02780       78.42805
C         -8.47284       14.06695       76.95304
C         -9.58888       15.13986       76.80701
C         -7.87176       13.72683       75.57573
C        -10.82837       14.69363       76.02103
H         -9.12368       13.93076       79.52330
H         -9.75502       12.35056       77.08197
H         -7.65909       14.53264       77.55315
H         -9.15856       16.03227       76.30144
H         -9.92203       15.46700       77.81470
H         -8.61485       13.23213       74.92029
H         -7.51112       14.65042       75.07505
H         -6.99951       13.05216       75.68371
H        -11.54765       15.53748       75.96363
H        -10.56851       14.39925       74.98415
H        -11.33984       13.85084       76.52755
N         -8.05809       10.49503       77.34598
C         -7.07255        9.41272       77.39061
C         -6.00701        9.62671       76.32838
O         -6.07063       10.61251       75.61286
C         -7.76907        8.07189       77.08755
C         -8.96720        7.86685       77.95732
O        -10.15660        7.88218       77.34616
O         -8.88205        7.76175       79.17028
H         -8.97553       10.29229       76.92682
H         -6.63606        9.34819       78.41133
H         -7.08136        7.20799       77.19691
H         -8.12576        8.10185       76.03190
N         -5.01135        8.71473       76.13682
C         -4.03478        8.84647       75.06252
C         -4.68239        8.72942       73.67390
O         -4.48893        9.66001       72.90303
C         -2.85655        7.86142       75.24817
C         -1.82638        8.01274       74.15307
C         -1.15637        9.23514       73.96499
C         -1.53108        6.93190       73.30378
C         -0.21435        9.37363       72.94296
C         -0.58539        7.07479       72.28415
C          0.07133        8.29478       72.10314
H         -4.94098        7.91057       76.77761
H         -3.58040        9.85821       75.14953
H         -3.20356        6.81775       75.28847
H         -2.37051        8.06024       76.22734
H         -1.36214       10.08271       74.60567
H         -2.03408        5.98046       73.42645
H          0.29358       10.31887       72.80283
H         -0.36294        6.23964       71.63289
H          0.80174        8.40458       71.31252
N         -5.43869        7.66035       73.24712
C         -6.02201        7.55467       71.90801
C         -6.82162        8.77793       71.51267
O         -6.65555        9.29084       70.41597
C         -6.96403        6.34437       72.00978
C         -6.24488        5.48019       73.01122
C         -5.81415        6.50987       74.04998
H         -5.21045        7.35216       71.17374
H         -7.92479        6.63462       72.49495
H         -7.20013        5.86242       71.03660
H         -6.83569        4.63176       73.41743
H         -5.33125        5.07843       72.51528
H         -6.65644        6.80012       74.71140
H         -5.00595        6.05547       74.63659
N         -7.69973        9.30359       72.40554
C         -8.53980       10.46879       72.16140
C         -7.68365       11.66748       71.79982
O         -7.91534       12.26440       70.75766
C         -9.40498       10.74420       73.40985
C        -10.35965        9.56106       73.68101
C        -11.16958        9.73306       74.92224
O        -11.06161       10.84257       75.67358
O        -11.94427        8.85029       75.25335
H         -7.74165        8.85264       73.33066
H         -9.23332       10.26340       71.31481
H        -10.01146       11.66417       73.25303
H         -8.74251       10.90158       74.29014
H         -9.80094        8.61488       73.81362
H        -11.04566        9.43886       72.81607
N         -6.63904       12.03728       72.58927
C         -5.73368       13.12294       72.27409
H         -4.70912       12.71383       72.14112
H         -6.01830       13.65648       71.34337
H         -5.72205       13.84969       73.11188
H         -6.44601       11.49697       73.43878
Ca       -12.24250        7.84659       78.09737
O        -12.70939        8.67808       81.06666
H        -13.26662        7.86021       81.05952
H        -11.78706        8.35262       81.22300

Ca 1.0



