%chk=holoCaM-CaMKII.loop1.water2.frame111.chk
%nprocshared=20
%mem=10GB
%nosave
#b3lyp/svp scf=(tight,noincore,xqc) Test 
#IOP(5/87=12) Density=Current Pop=(MK,readradii) iop(6/33=2) iop(6/42=6)

holoCaM-CaMKII.loop1.water2.frame111 

   0  1 
C         22.08181       30.67599       64.14980
C         21.65048       30.06167       62.85885
O         20.93912       29.06934       62.89992
H         22.70356       31.57845       63.98016
H         21.17500       30.97258       64.72054
H         22.65706       29.93287       64.73800
N         21.99627       30.61828       61.66362
C         21.45643       30.10379       60.41840
C         22.01263       28.71701       60.11451
O         23.19784       28.59924       59.83291
C         21.74701       31.06823       59.25377
C         20.86682       30.77259       58.08541
O         20.97226       31.43272       57.06648
O         19.85945       29.88793       58.21329
H         22.56904       31.47644       61.65418
H         20.35188       30.07316       60.56623
H         22.82179       31.03112       58.97140
H         21.50455       32.11071       59.55714
N         21.21724       27.61485       60.20990
C         21.73480       26.25554       60.08599
C         21.85096       25.77391       58.64550
O         22.53845       24.78211       58.44315
C         20.86018       25.25230       60.87544
C         20.64988       25.60807       62.36140
C         21.95762       25.69977       63.15867
C         21.67683       26.03634       64.62858
N         22.92282       26.13626       65.38702
H         20.26353       27.75465       60.55755
H         22.75474       26.23640       60.52754
H         21.32098       24.24165       60.81494
H         19.85678       25.19949       60.39709
H         20.00640       24.82070       62.81084
H         20.10265       26.56828       62.44904
H         22.60091       26.50215       62.74070
H         22.49790       24.73028       63.09417
H         21.03403       25.24689       65.07707
H         21.13418       27.00602       64.69079
H         23.52820       26.88977       64.98668
H         22.70040       26.37408       66.38043
H         23.43226       25.22319       65.36178
N         21.17488       26.35921       57.60907
C         21.26348       25.86782       56.22837
C         21.81512       26.91556       55.26568
O         22.00386       26.59049       54.10149
C         19.90552       25.29279       55.75965
C         18.78777       26.28787       55.61739
O         18.98928       27.59529       55.84109
O         17.68297       25.90522       55.26744
H         20.55355       27.15535       57.80850
H         21.97547       25.01570       56.18051
H         19.59146       24.50878       56.48287
H         20.04386       24.80519       54.76983
N         22.13929       28.17434       55.67845
C         22.78048       29.15594       54.82338
C         21.93637       29.60099       53.64993
O         22.39854       29.50135       52.52270
H         21.99295       28.44989       56.65893
H         23.75152       28.74807       54.46655
H         23.00347       30.06026       55.43132
N         20.71994       30.17953       53.85156
C         19.94559       30.83947       52.79639
C         19.82562       32.34039       53.09631
O         19.07498       33.02985       52.42145
C         18.59306       30.11074       52.58450
C         17.65236       30.14467       53.74782
O         17.89328       30.96012       54.77783
O         16.69447       29.38937       53.78312
H         20.35840       30.22028       54.81624
H         20.46554       30.75838       51.81796
H         18.84261       29.04564       52.38227
H         18.05924       30.51003       51.69662
N         20.60584       32.91949       54.06019
C         20.61738       34.32982       54.40472
C         19.36046       34.77621       55.10515
O         18.90466       35.87375       54.83240
H         21.29061       32.34824       54.57307
H         20.85065       34.96146       53.51997
H         21.43760       34.48404       55.14060
N         18.82668       34.01711       56.10420
C         17.69344       34.40194       56.95594
C         17.56850       33.45625       58.16254
O         18.22333       32.42647       58.21737
C         16.32296       34.44478       56.20288
C         16.08277       35.62671       55.25402
O         16.08534       33.23712       55.53242
H         19.31376       33.13398       56.30184
H         17.92040       35.39795       57.39563
H         15.52985       34.57070       56.97059
H         16.67802       33.21773       54.73571
H         16.69427       35.56802       54.33698
H         15.02721       35.60637       54.90941
H         16.25859       36.58669       55.78456
N         16.77644       33.80473       59.21653
C         16.65107       33.02186       60.44615
C         15.17541       32.73624       60.70216
O         14.37531       33.66145       60.67477
C         17.31471       33.79356       61.62754
C         18.82697       34.01077       61.32710
C         17.13606       33.01685       62.95088
C         19.55679       34.87145       62.36030
H         16.28218       34.70962       59.17728
H         17.19609       32.05484       60.36781
H         16.81901       34.78439       61.72856
H         18.93996       34.53500       60.35521
H         19.34246       33.02710       61.24741
H         17.56317       33.57303       63.80824
H         16.06165       32.87373       63.18357
H         17.62318       32.01922       62.89011
H         20.61321       35.00526       62.04326
H         19.07999       35.87191       62.42914
H         19.57011       34.39560       63.36058
N         14.75976       31.47431       61.01500
C         13.36926       31.10721       61.28470
C         13.19402       30.78482       62.75749
O         14.14746       30.88295       63.50842
C         12.94656       29.88010       60.42433
C         13.13586       30.10994       58.92590
O         13.61479       28.71132       60.83254
H         15.47297       30.74411       61.12155
H         12.69170       31.95524       61.04438
H         11.86245       29.69583       60.57127
H         14.54335       28.75389       60.49403
H         14.21158       30.25808       58.71534
H         12.78561       29.21905       58.36127
H         12.56274       30.99912       58.59118
N         11.98738       30.38784       63.24237
C         11.76992       29.97504       64.62821
C         12.59387       28.73685       64.96650
O         13.30015       28.75179       65.96460
C         10.26721       29.70323       64.89081
C          9.44775       30.99725       64.78222
O          9.77684       28.74462       63.98786
H         11.19158       30.36114       62.58896
H         12.07222       30.79564       65.31845
H         10.16756       29.32231       65.93419
H          8.89555       28.44547       64.33231
H          9.81862       31.74360       65.51720
H          9.51207       31.43642       63.76530
H          8.38115       30.78929       65.00792
N         12.55491       27.63291       64.16659
C         13.27669       26.38808       64.43917
C         14.76036       26.64212       64.63871
O         15.30781       26.22871       65.65137
C         13.02574       25.39541       63.27807
C         13.62808       24.00056       63.51443
C         13.19039       23.03348       62.40257
C         13.70842       21.61022       62.65004
N         13.20484       20.68780       61.63113
H         11.98463       27.68626       63.30860
H         12.86563       25.93261       65.36801
H         13.41583       25.81203       62.32235
H         11.92406       25.27640       63.17872
H         13.25773       23.61083       64.48743
H         14.73800       24.06163       63.55103
H         13.55737       23.39678       61.41718
H         12.07893       23.00135       62.37739
H         13.36621       21.26098       63.64963
H         14.82090       21.60806       62.63809
H         13.52793       20.98326       60.68149
H         13.56407       19.72608       61.82949
H         12.15887       20.66432       61.65472
N         15.45985       27.35175       63.71614
C         16.88417       27.66275       63.82655
C         17.15916       28.42434       65.11733
O         17.99016       27.98680       65.90109
C         17.34791       28.45241       62.57563
C         17.18676       27.59270       61.29830
C         17.55229       28.31154       60.03072
O         16.95080       29.46526       59.69582
O         18.33294       27.80240       59.24616
H         14.93070       27.71115       62.90998
H         17.47251       26.71798       63.85339
H         18.41450       28.73497       62.68545
H         16.75207       29.38608       62.49270
H         16.13777       27.27060       61.17873
H         17.80223       26.67221       61.39429
N         16.45207       29.54144       65.42959
C         16.61781       30.26320       66.67276
H         15.89238       31.10522       66.71863
H         16.41917       29.58965       67.53423
H         17.64595       30.67305       66.74444
H         15.74041       29.86920       64.77624
Ca        18.23174       30.01955       56.73005
O         15.12833       30.99046       56.60963
H         15.29930       30.51907       55.75849
H         14.25881       31.44463       56.47173
O         15.47389       27.53416       57.76426
H         15.05418       26.63829       57.73045
H         16.19497       27.49797       57.08684

Ca 1.0



