%chk=holoCaM-CaMKII.loop4.water2.frame23.chk
%nprocshared=20
%mem=10GB
%nosave
#b3lyp/svp scf=(tight,noincore,xqc) Test 
#IOP(5/87=12) Density=Current Pop=(MK,readradii) iop(6/33=2) iop(6/42=6)

holoCaM-CaMKII.loop4.water2.frame23 

   -3  1 
C         24.75850       54.40682       36.60901
C         24.33524       55.66915       37.30599
O         25.10112       56.22397       38.07828
H         25.78761       54.10922       36.89862
H         24.05957       53.58503       36.87634
H         24.72357       54.55857       35.50884
N         23.10071       56.17880       37.05636
C         22.55387       57.39138       37.67051
C         22.41034       57.16195       39.17577
O         21.56247       56.37123       39.56703
C         21.19106       57.64134       36.97559
C         20.28489       58.79577       37.29204
O         20.60073       59.86307       38.04918
O         19.17352       58.75185       36.79821
H         22.52504       55.66417       36.36962
H         23.24324       58.23075       37.45678
H         20.58141       56.73179       37.17113
H         21.37033       57.69222       35.87798
N         23.27571       57.73136       40.07245
C         23.27109       57.36757       41.49515
C         22.19545       58.10221       42.29267
O         21.98098       57.72252       43.43556
C         24.68264       57.52246       42.16845
C         25.11245       59.00648       42.32102
C         25.73232       56.68200       41.41240
C         26.49879       59.20795       42.94684
H         24.04413       58.30266       39.70191
H         23.04211       56.27910       41.55288
H         24.61741       57.09536       43.19474
H         24.37592       59.53075       42.96577
H         25.10645       59.50285       41.34197
H         25.39389       55.62743       41.33189
H         25.91660       57.08286       40.39590
H         26.69849       56.66191       41.95717
H         26.70260       60.29521       43.04925
H         26.55249       58.73690       43.94991
H         27.30065       58.78957       42.30381
N         21.53674       59.19692       41.79997
C         20.58662       59.98277       42.59229
C         19.24285       60.22253       41.89592
O         18.41272       60.90760       42.47807
C         21.24742       61.30577       43.04092
C         21.60023       62.27267       41.94843
O         22.17389       63.44651       42.27227
O         21.36624       62.02155       40.78023
H         21.78474       59.54201       40.86570
H         20.35270       59.45021       43.53986
H         22.17710       61.05932       43.59892
H         20.56166       61.82677       43.74331
N         18.92029       59.65303       40.69811
C         17.58120       59.74112       40.12713
C         17.26140       61.00059       39.33820
O         16.14065       61.07552       38.85231
H         19.58253       59.00100       40.25581
H         16.82644       59.57962       40.92715
H         17.46111       58.90515       39.40374
N         18.16791       61.99376       39.08994
C         17.87240       63.11819       38.18800
C         17.76124       62.70192       36.70440
O         17.57780       63.57532       35.86784
C         18.87652       64.28155       38.38609
C         20.31372       63.95481       38.11673
O         21.23245       64.13241       39.08219
O         20.67018       63.59639       37.01128
H         19.09425       61.94406       39.53457
H         16.89468       63.56205       38.48125
H         18.79262       64.63746       39.43566
H         18.58562       65.12927       37.72709
N         17.80541       61.39510       36.30818
C         17.62516       60.93620       34.93834
C         18.85896       61.05291       34.06782
O         18.77768       60.62954       32.92203
H         17.87304       60.66177       37.01120
H         16.75141       61.44610       34.47762
H         17.38732       59.84994       34.96891
N         20.02843       61.59557       34.51348
C         21.22702       61.70945       33.68725
C         22.45404       61.14674       34.38482
O         22.38857       60.78172       35.55265
C         21.49043       63.19039       33.34886
C         20.34579       63.80574       32.53479
C         20.69137       65.20275       32.08979
N         20.91772       66.18638       32.99118
O         20.76893       65.44900       30.89534
H         20.06783       61.96910       35.46533
H         21.09647       61.15004       32.73439
H         22.41500       63.26546       32.73726
H         21.64824       63.76697       34.28702
H         19.41002       63.82800       33.13344
H         20.17270       63.17508       31.63465
H         20.85203       66.00382       34.00277
H         21.15840       67.13728       32.67414
N         23.63071       61.07162       33.70045
C         24.90313       60.65998       34.27679
C         25.90985       61.78325       34.06329
O         26.11240       62.18343       32.92322
C         25.37686       59.32368       33.63949
C         26.75435       58.89715       34.17873
C         24.36632       58.19992       33.93392
H         23.63120       61.32922       32.70016
H         24.79493       60.47984       35.36003
H         25.45951       59.44869       32.53711
H         27.52737       59.65777       33.94315
H         26.71619       58.75190       35.27841
H         27.07308       57.94212       33.70889
H         24.26725       58.04273       35.03030
H         23.36624       58.44428       33.52018
H         24.70126       57.24601       33.47324
N         26.60357       62.31337       35.11425
C         27.60735       63.37193       34.97353
C         28.99612       62.80945       35.22041
O         29.10852       61.61460       35.42321
C         27.29835       64.59558       35.87502
C         27.65073       64.44210       37.34229
N         27.00707       63.57931       38.15810
O         28.53960       65.14164       37.80608
H         26.45636       61.89498       36.04098
H         27.59697       63.75397       33.92897
H         26.24338       64.91157       35.74637
H         27.91538       65.43733       35.49132
H         26.22763       63.00073       37.82852
H         27.27946       63.51012       39.14979
N         30.10612       63.59764       35.19355
C         31.46530       63.07754       35.34124
C         31.69514       62.36072       36.66567
O         32.22040       61.25693       36.64667
C         32.49785       64.21396       35.20071
C         33.90549       63.66129       35.20054
C         34.31504       62.77763       34.18563
C         34.81265       64.00594       36.21564
C         35.60370       62.24220       34.19028
C         36.10462       63.46915       36.21700
C         36.50285       62.58340       35.20397
O         37.74260       62.05439       35.19401
H         29.98471       64.60746       35.02287
H         31.63951       62.35630       34.51306
H         32.35345       64.93906       36.03290
H         32.33539       64.75651       34.24469
H         33.63597       62.49747       33.39041
H         34.51940       64.68141       37.00976
H         35.90106       61.55886       33.40472
H         36.79349       63.73892       37.00715
H         38.39627       62.26183       35.87643
N         31.32817       62.93277       37.84820
C         31.53271       62.31149       39.16237
C         31.06244       60.87023       39.14645
O         31.81600       59.97815       39.51072
C         30.74924       63.08680       40.25666
C         31.23980       64.52601       40.49377
C         32.62434       64.55369       41.07340
O         32.86703       63.97266       42.26448
O         33.52964       65.11802       40.48102
H         30.82817       63.83004       37.79418
H         32.61477       62.30832       39.41867
H         30.81047       62.53891       41.22379
H         29.67596       63.12618       39.96830
H         30.55893       65.02073       41.21935
H         31.20287       65.11356       39.55329
N         29.82534       60.58115       38.68185
C         29.27563       59.23473       38.58762
C         30.10422       58.36044       37.66203
O         30.53220       57.29317       38.07792
C         27.83110       59.32657       38.08468
C         26.96349       60.07897       39.10646
C         25.56318       60.24110       38.63818
O         24.67693       60.89741       39.39664
O         25.19717       59.76072       37.58097
H         29.25685       61.37741       38.35541
H         29.25036       58.76237       39.59588
H         27.41129       58.30622       37.93978
H         27.80990       59.86192       37.10933
H         27.35405       61.09094       39.31608
H         26.96368       59.51094       40.05509
N         30.37844       58.75686       36.39224
C         31.15605       57.96791       35.46583
H         32.16175       57.76455       35.88898
H         30.63197       57.01377       35.25109
H         31.28049       58.52764       34.51280
H         30.03908       59.66304       36.07230
Ca        22.61456       60.55743       38.66879
O         24.59859       63.84914       39.91906
H         23.65534       63.61189       40.09422
H         25.11192       63.33770       40.59391
O         23.43193       64.08857       36.61535
H         22.96058       64.91572       36.88686
H         24.36299       64.23612       36.90920

Ca 1.0



