%chk=holoCaM-CaMKII.loop3.water3.frame297.chk
%nprocshared=20
%mem=10GB
%nosave
#b3lyp/svp scf=(tight,noincore,xqc) Test 
#IOP(5/87=12) Density=Current Pop=(MK,readradii) iop(6/33=2) iop(6/42=6)

holoCaM-CaMKII.loop3.water3.frame297 

   0  1 
C         40.62819       35.24189       83.33734
C         39.84870       36.34016       83.99449
O         40.36547       36.98966       84.89240
H         41.63823       35.14765       83.78955
H         40.08792       34.27961       83.45748
H         40.73969       35.46499       82.25508
N         38.58129       36.60953       83.57749
C         37.76954       37.68184       84.13922
C         37.50824       37.42301       85.62118
O         36.81662       36.47046       85.95363
C         36.45569       37.78860       83.33338
C         35.56013       38.91761       83.73389
O         35.92356       39.78322       84.69271
O         34.50658       39.08097       83.14194
H         38.19820       36.04232       82.80441
H         38.33430       38.63273       84.00851
H         35.88922       36.83763       83.42931
H         36.71112       37.93905       82.26084
N         38.09980       38.20843       86.56661
C         38.00594       37.96211       88.00150
C         36.66797       38.45164       88.53031
O         35.87196       37.63321       88.96875
C         39.23962       38.60621       88.69300
C         39.45108       38.33146       90.19316
C         38.49069       39.09531       91.11858
C         38.90601       39.01288       92.60011
N         38.84893       37.64939       93.12886
H         38.74227       38.94072       86.24320
H         38.10169       36.86519       88.17183
H         39.27327       39.70113       88.51298
H         40.12941       38.17233       88.18266
H         40.47679       38.69378       90.42862
H         39.42122       37.23792       90.38336
H         37.45260       38.72623       91.00811
H         38.51674       40.17084       90.83580
H         38.21638       39.65558       93.19065
H         39.93510       39.41906       92.72624
H         39.54360       37.03491       92.64853
H         39.08684       37.67290       94.14703
H         37.88509       37.26031       93.01643
N         36.36590       39.78380       88.54939
C         35.12427       40.31700       89.11732
C         33.91229       40.18371       88.19209
O         32.83666       40.62049       88.57959
C         35.30972       41.78476       89.57085
C         35.61866       42.78568       88.49094
O         35.78251       42.44841       87.32998
O         35.72683       44.08456       88.82504
H         37.09164       40.44319       88.23621
H         34.90388       39.76412       90.05822
H         36.12865       41.82636       90.32145
H         34.37611       42.11224       90.07812
N         33.99002       39.57582       86.97618
C         32.84493       39.38867       86.09886
C         32.32530       40.63995       85.40330
O         31.35502       40.49269       84.67320
H         34.87352       39.13997       86.69296
H         32.02358       38.91109       86.67611
H         33.12868       38.67727       85.29598
N         32.87866       41.88584       85.54362
C         32.30659       43.05417       84.86440
C         32.38259       42.97531       83.33771
O         31.68823       43.74975       82.69210
C         32.91527       44.39743       85.34080
C         34.37639       44.60173       85.01173
N         34.94258       45.81755       85.18406
O         35.05147       43.68520       84.57563
H         33.67792       42.01552       86.17238
H         31.22969       43.08203       85.14649
H         32.77415       44.52144       86.43580
H         32.34535       45.20912       84.83678
H         34.38972       46.61084       85.53924
H         35.93032       45.97403       84.93414
N         33.20897       42.10102       82.69143
C         33.25257       41.95682       81.24238
C         34.59597       42.29941       80.62248
O         34.71793       42.11165       79.42079
H         33.82808       41.49320       83.24299
H         32.48846       42.59310       80.74406
H         33.00959       40.90003       81.00213
N         35.62716       42.84491       81.33767
C         36.90037       43.23842       80.73726
C         38.06824       42.54043       81.46896
O         38.17598       43.04913       82.76833
C         37.07565       44.77505       80.77897
C         36.00875       45.50170       79.99623
C         36.33592       46.11759       78.77754
C         34.68670       45.58384       80.47151
C         35.35854       46.78767       78.03863
C         33.71162       46.26012       79.73326
C         34.04480       46.86176       78.51119
O         33.11499       47.51413       77.78536
H         35.49649       43.03761       82.33459
H         36.93593       42.92474       79.67130
H         38.06942       45.00045       80.33472
H         37.08571       45.16402       81.82067
H         37.34656       46.06965       78.39154
H         34.40741       45.13555       81.41642
H         35.62478       47.24908       77.09641
H         32.69895       46.31641       80.11266
H         32.19528       47.59006       78.07641
N         39.35189       42.71972       80.77350
C         40.45232       41.95013       81.39480
C         41.65972       42.86353       81.46861
O         42.23143       43.19129       80.43751
C         40.78532       40.63398       80.61144
C         39.56106       39.68337       80.56566
C         42.00770       39.91969       81.23030
C         39.77389       38.45970       79.66842
H         39.27562       42.52412       79.74817
H         40.18303       41.66686       82.43811
H         41.04827       40.91629       79.56704
H         38.68884       40.22458       80.14544
H         39.30011       39.34860       81.59347
H         42.89572       40.58028       81.22391
H         41.79654       39.61100       82.27563
H         42.30330       39.03023       80.64100
H         38.84402       37.85432       79.64231
H         40.01336       38.78332       78.63242
H         40.58408       37.80392       80.04387
N         42.08987       43.33368       82.67392
C         43.27645       44.16781       82.82327
C         44.53920       43.33391       82.66266
O         44.44742       42.12310       82.51990
C         43.26675       44.85978       84.20172
O         43.29999       43.91072       85.23016
H         41.53413       43.10878       83.50953
H         43.24797       44.97474       82.05767
H         42.33687       45.46716       84.28398
H         44.14373       45.53657       84.29441
H         43.22185       44.41740       86.07983
N         45.76665       43.91665       82.69854
C         47.01230       43.15704       82.64586
C         47.14493       42.25946       83.86634
O         47.38971       41.07281       83.71282
C         48.21053       44.10806       82.58420
H         45.81599       44.94509       82.77873
H         47.04113       42.54367       81.71615
H         48.25017       44.76224       83.48063
H         49.15429       43.52462       82.52013
H         48.13473       44.74582       81.67760
N         46.96689       42.77855       85.11642
C         47.08320       42.01013       86.35575
C         46.21053       40.77112       86.33520
O         46.71446       39.68856       86.60431
C         46.69561       42.89198       87.55002
H         46.71342       43.77591       85.18599
H         48.14181       41.69764       86.49610
H         47.35700       43.78339       87.59520
H         45.64239       43.23648       87.45993
H         46.80706       42.32572       88.49930
N         44.90123       40.85324       85.97481
C         44.00835       39.70055       85.87474
C         44.61810       38.63838       84.97604
O         44.82077       37.52329       85.43686
C         42.63272       40.14649       85.32966
C         41.86382       41.00761       86.34626
C         40.62750       41.59605       85.72918
O         40.44797       42.80318       85.74859
O         39.71662       40.80464       85.14005
H         44.54394       41.78206       85.71125
H         43.86422       39.24886       86.88285
H         42.00654       39.25584       85.10106
H         42.78912       40.71129       84.38405
H         42.49331       41.83877       86.72591
H         41.58254       40.37025       87.21215
N         44.97257       38.92054       83.69464
C         45.61181       37.94363       82.84122
H         46.57007       37.61415       83.29852
H         44.94675       37.06614       82.69994
H         45.83187       38.39401       81.85024
H         44.80835       39.86165       83.31974
Ca        37.08164       41.53741       84.00233
O         37.91589       44.91188       87.08202
H         38.27295       45.55650       87.74225
H         37.00908       45.24939       86.87909
O         38.72393       45.43847       84.28126
H         39.12957       46.06305       84.93305
H         39.12141       45.69402       83.41154
O         38.90402       42.42822       88.40799
H         38.47648       42.80782       89.21584
H         39.85092       42.29938       88.66521

Ca 1.0



