%chk=holoCaM-CaMKII.loop4.water2.frame31.chk
%nprocshared=20
%mem=10GB
%nosave
#b3lyp/svp scf=(tight,noincore,xqc) Test 
#IOP(5/87=12) Density=Current Pop=(MK,readradii) iop(6/33=2) iop(6/42=6)

holoCaM-CaMKII.loop4.water2.frame31 

   -3  1 
C          9.84290       76.69640       34.63618
C          9.29143       77.86052       35.39888
O          9.78404       78.17131       36.47325
H         10.69525       76.23560       35.17693
H          9.04504       75.93704       34.49682
H         10.19212       77.04247       33.63982
N          8.26205       78.57183       34.87258
C          7.68257       79.73591       35.52186
C          6.96569       79.33723       36.80698
O          6.13671       78.43891       36.75098
C          6.68763       80.41661       34.55732
C          6.22467       81.73207       35.09389
O          5.43730       82.40288       34.45837
O          6.72525       82.17452       36.25891
H          7.90183       78.28843       33.94720
H          8.49847       80.46753       35.72409
H          5.81355       79.75417       34.37488
H          7.19174       80.62004       33.58758
N          7.19240       79.99632       37.98605
C          6.52439       79.64117       39.23405
C          5.54393       80.74445       39.64131
O          4.35959       80.45407       39.74361
C          7.56302       79.33130       40.36054
C          8.70352       78.41492       39.83764
C          6.84353       78.69114       41.56628
C          9.78744       78.10978       40.87573
H          7.85286       80.78442       38.00269
H          5.93338       78.71068       39.07831
H          8.03608       80.28276       40.68752
H          9.21690       78.93637       39.00314
H          8.29063       77.45951       39.44910
H          6.40245       77.71219       41.27544
H          7.53852       78.52600       42.41368
H          6.03162       79.34792       41.94005
H         10.20929       79.04890       41.29143
H          9.39099       77.48762       41.70267
H         10.60933       77.54050       40.39194
N          5.95885       82.02075       39.91995
C          5.05788       83.05306       40.44532
C          4.01184       83.59791       39.46047
O          3.24281       84.45878       39.86596
C          5.82933       84.15766       41.21811
C          6.59916       85.25175       40.51634
O          6.69263       85.40506       39.18314
O          7.15293       86.08296       41.21820
H          6.96502       82.22359       39.87682
H          4.48170       82.56712       41.26661
H          6.52292       83.64674       41.92285
H          5.08212       84.69935       41.83951
N          3.85000       83.09588       38.19870
C          2.74272       83.47439       37.33109
C          2.88464       84.82716       36.65958
O          2.05497       85.69532       36.88951
H          4.44595       82.32222       37.87723
H          1.79599       83.41305       37.91143
H          2.66095       82.73047       36.50902
N          3.85663       85.02911       35.72343
C          3.91857       86.20318       34.84879
C          4.45925       85.85604       33.44938
O          4.98504       86.73115       32.77433
C          4.71876       87.33433       35.52796
C          6.16888       87.00683       35.77446
O          6.64037       85.92926       35.45219
O          6.96278       87.92620       36.35196
H          4.50709       84.25814       35.54899
H          2.88722       86.58837       34.68046
H          4.24208       87.57776       36.50107
H          4.67295       88.24340       34.88986
N          4.29458       84.60755       32.92332
C          4.73239       84.19605       31.59650
C          6.23614       84.03979       31.38941
O          6.58810       83.58346       30.31159
H          3.75913       83.91170       33.46018
H          4.31281       84.88588       30.83115
H          4.30114       83.18938       31.40295
N          7.18249       84.39674       32.31409
C          8.62414       84.25491       32.06324
C          9.36291       83.62644       33.24400
O          8.75488       83.32319       34.25775
C          9.23199       85.62681       31.70399
C          8.66152       86.15847       30.37758
C          9.34695       87.41057       29.89044
N          8.97475       87.95834       28.71132
O         10.24596       87.92707       30.53887
H          6.88871       84.84638       33.18782
H          8.80436       83.58102       31.19655
H         10.32545       85.51351       31.55481
H          9.06472       86.35714       32.52427
H          7.57553       86.36180       30.48805
H          8.80228       85.38194       29.59335
H          8.22478       87.53063       28.14807
H          9.44163       88.80550       28.35602
N         10.71021       83.39538       33.14668
C         11.52890       82.76261       34.17731
C         12.62483       83.73352       34.61376
O         13.34771       84.22232       33.75747
C         12.17531       81.46717       33.59868
C         12.95779       80.70087       34.67690
C         11.12467       80.52513       32.99126
H         11.19282       83.64996       32.27364
H         10.90842       82.47231       35.05008
H         12.88118       81.74808       32.78506
H         13.75212       81.33202       35.11986
H         12.27250       80.36154       35.48052
H         13.44724       79.80610       34.23748
H         10.38431       80.21443       33.75710
H         10.59177       81.01972       32.15267
H         11.62002       79.61916       32.57947
N         12.84968       84.00204       35.93572
C         13.94080       84.85767       36.40899
C         15.08681       83.99614       36.93924
O         15.01998       82.78399       36.81385
C         13.38899       85.88875       37.42478
C         13.13744       85.32709       38.80422
N         11.88869       85.13701       39.27063
O         14.08403       85.07050       39.52592
H         12.26810       83.53477       36.64145
H         14.35043       85.44795       35.56112
H         12.45967       86.32574       36.99758
H         14.10110       86.73346       37.54940
H         11.08188       85.32378       38.66959
H         11.73724       84.77485       40.22447
N         16.17340       84.55544       37.54532
C         17.31920       83.78428       38.03931
C         16.90470       82.63852       38.95782
O         17.26178       81.50335       38.67720
C         18.28519       84.72059       38.80146
C         19.41137       83.95029       39.45020
C         20.37823       83.29209       38.67405
C         19.47329       83.85768       40.85141
C         21.39187       82.55268       39.29309
C         20.47951       83.11196       41.46631
C         21.44373       82.45628       40.68882
O         22.41833       81.72956       41.27113
H         16.18095       85.57898       37.66903
H         17.85390       83.34271       37.16863
H         17.69890       85.24149       39.59025
H         18.69248       85.50370       38.12653
H         20.34507       83.34910       37.59325
H         18.73025       84.34606       41.46984
H         22.13358       82.04814       38.68719
H         20.50351       83.04064       42.54644
H         22.48077       81.63237       42.23230
N         16.19480       82.87178       40.09212
C         15.79554       81.82825       41.03217
C         14.92511       80.78401       40.35540
O         15.22774       79.60386       40.46604
C         15.03607       82.43358       42.23400
C         15.92277       83.37743       43.06623
C         15.16844       83.92449       44.24308
O         15.00813       85.12867       44.36390
O         14.67673       83.09069       45.17950
H         15.93863       83.84385       40.29546
H         16.70255       81.32326       41.43607
H         14.70416       81.60174       42.89525
H         14.13318       82.97772       41.87732
H         16.27920       84.22514       42.44502
H         16.81170       82.82453       43.43930
N         13.83051       81.14856       39.62823
C         12.93048       80.17739       38.99837
C         13.63370       79.29988       37.96469
O         13.05204       78.30071       37.56475
C         11.75907       80.89573       38.29711
C         10.88859       81.72847       39.25390
C          9.85670       82.55752       38.53884
O          9.05651       83.36446       39.25612
O          9.74889       82.53674       37.32310
H         13.63829       82.15615       39.53428
H         12.53178       79.51601       39.79938
H         11.10397       80.15842       37.78449
H         12.20223       81.55623       37.52911
H         11.51142       82.43346       39.83217
H         10.38157       81.05319       39.97096
N         14.85980       79.62131       37.46345
C         15.57922       78.82072       36.49551
H         16.57035       78.54907       36.91654
H         15.04070       77.88785       36.23099
H         15.73873       79.41630       35.57221
H         15.31203       80.48925       37.75804
Ca         6.40980       83.97791       37.50821
O         10.08979       86.33855       35.23301
H          9.14346       86.09877       35.07571
H         10.16305       87.26997       34.90623
O          9.00426       86.57640       38.06728
H          9.02668       86.09422       38.93075
H          9.39243       87.46097       38.27854

Ca 1.0



