%chk=holoCaM-CaMKII.loop2.water1.frame130.chk
%nprocshared=20
%mem=10GB
%nosave
#b3lyp/svp scf=(tight,noincore,xqc) Test 
#IOP(5/87=12) Density=Current Pop=(MK,readradii) iop(6/33=2) iop(6/42=6)

holoCaM-CaMKII.loop2.water1.frame130 

   -2  1 
C         45.54548       57.44248       60.86283
C         44.86520       57.54956       59.53231
O         45.30988       56.91191       58.58828
H         46.59454       57.78988       60.77453
H         45.02790       58.05375       61.63218
H         45.53343       56.38229       61.19336
N         43.75115       58.31801       59.38910
C         43.00534       58.38421       58.14307
C         43.83856       59.03961       57.04075
O         44.12187       60.22606       57.13165
C         41.67143       59.12387       58.39412
C         40.74929       59.10991       57.22453
O         41.08530       58.59299       56.17939
O         39.53002       59.65783       57.33170
H         43.38870       58.81879       60.21593
H         42.75582       57.33944       57.86032
H         41.86276       60.17755       58.69120
H         41.13804       58.61390       59.22597
N         44.30663       58.29784       55.99112
C         45.18135       58.84069       54.95042
C         44.44667       59.67913       53.90668
O         45.11338       60.35036       53.13153
C         45.91518       57.69931       54.23599
H         44.12073       57.28612       55.99747
H         45.95476       59.46594       55.44985
H         46.63245       58.10110       53.48886
H         46.48489       57.09617       54.97516
H         45.18948       57.03436       53.71881
N         43.08851       59.65599       53.79509
C         42.31950       60.43575       52.82446
C         41.39694       61.44807       53.50923
O         40.76629       62.22034       52.79992
C         41.53567       59.49439       51.86581
C         40.77609       58.40151       52.58177
O         41.00206       57.23183       52.31933
O         39.95236       58.70679       53.59837
H         42.56509       59.04047       54.42251
H         42.99802       61.05172       52.19369
H         42.26159       59.00563       51.17844
H         40.84456       60.09736       51.23804
N         41.29969       61.54932       54.86821
C         40.53528       62.58108       55.55701
C         39.02368       62.55022       55.37806
O         38.38178       63.41100       55.96395
H         41.85606       60.92599       55.46519
H         40.91335       63.57492       55.23401
H         40.73263       62.48665       56.64804
N         38.36887       61.63342       54.60504
C         36.91583       61.65664       54.40793
C         36.10830       61.17102       55.62309
O         34.89731       61.05054       55.49719
C         36.51825       60.90021       53.11047
C         36.75133       59.41324       53.08695
N         36.39401       58.69157       52.00090
O         37.25489       58.84959       54.03817
H         38.91687       60.94287       54.08066
H         36.61086       62.70506       54.19174
H         37.07522       61.34809       52.25858
H         35.43478       61.06911       52.92918
H         35.96124       59.14851       51.18552
H         36.54412       57.67252       51.97644
N         36.68238       60.91365       56.83625
C         35.93250       60.47666       58.00607
C         35.57999       58.99776       58.00419
O         34.96249       58.56323       58.96569
H         37.67644       61.10806       56.97906
H         35.02519       61.10852       58.12727
H         36.56452       60.63520       58.90728
N         35.95766       58.15746       56.99618
C         35.69209       56.71715       56.97930
C         37.02634       55.91200       56.85816
O         38.11154       56.74912       57.11807
C         34.75254       56.41939       55.79229
C         34.38428       54.93934       55.67364
O         33.57543       57.17056       55.95276
H         36.47068       58.54421       56.20155
H         35.17716       56.41935       57.91998
H         35.27633       56.73594       54.85914
H         33.22456       57.36317       55.04410
H         33.70215       54.79623       54.80926
H         35.28774       54.32027       55.49675
H         33.87237       54.59392       56.59653
N         37.04974       54.77118       57.79916
C         38.35085       54.06680       57.90956
C         38.42403       52.88241       56.94624
O         37.67703       51.92895       57.11926
C         38.57330       53.59865       59.38371
C         38.41032       54.78677       60.37169
C         39.96340       52.94708       59.54204
C         38.51243       54.38209       61.84621
H         36.24896       54.11256       57.66681
H         39.17990       54.76748       57.68493
H         37.79521       52.84226       59.63101
H         37.40111       55.23218       60.23992
H         39.16622       55.57317       60.15611
H         40.07522       52.08810       58.85697
H         40.76698       53.68433       59.32925
H         40.11018       52.53998       60.56148
H         37.76084       53.59951       62.08486
H         39.52516       54.01063       62.10078
H         38.31566       55.26720       62.48700
N         39.31572       52.87279       55.91250
C         39.48578       51.72810       55.01227
C         40.25888       50.60581       55.70199
O         40.69579       50.78900       56.82660
C         40.27264       52.15566       53.75402
C         39.57909       53.24096       52.98792
O         40.18551       54.42775       52.80069
O         38.47432       53.04319       52.50871
H         39.88026       53.71822       55.74950
H         38.48495       51.36587       54.68759
H         40.37873       51.29955       53.06020
H         41.28632       52.50137       54.05241
N         40.49281       49.41503       55.07485
C         41.33134       48.36729       55.65655
C         42.79492       48.81124       55.78635
O         43.30268       48.72549       56.89553
C         41.23758       47.04396       54.86573
C         42.05494       45.95561       55.53587
C         43.14778       45.37238       54.87090
C         41.74279       45.52656       56.84100
C         43.91554       44.38731       55.50229
C         42.51361       44.54302       57.46743
C         43.60000       43.97469       56.79950
H         40.05919       49.24862       54.15357
H         40.93085       48.14295       56.67033
H         41.57832       47.20013       53.82453
H         40.17778       46.71305       54.81659
H         43.41262       45.68503       53.86888
H         40.90644       45.95391       57.37882
H         44.75888       43.94573       54.98750
H         42.26975       44.22353       58.47281
H         44.19718       43.21515       57.28785
N         43.54995       49.30321       54.74211
C         44.95009       49.71052       54.86906
C         45.16025       50.94709       55.73738
O         46.30516       51.35148       55.88919
C         45.39404       49.93940       53.41905
C         44.12058       50.43612       52.77922
C         43.09240       49.48333       53.37859
H         45.56862       48.89139       55.29774
H         46.29106       50.58184       53.28552
H         45.60908       48.94814       52.95748
H         43.92399       51.46270       53.16754
H         44.12159       50.46874       51.66912
H         42.10909       49.96228       53.29108
H         43.10632       48.50181       52.85942
N         44.13343       51.55519       56.39244
C         44.31414       52.60645       57.37782
C         44.28760       51.95906       58.74878
O         45.25092       52.10704       59.48737
C         43.21968       53.67559       57.21340
C         43.30742       54.34870       55.83463
C         42.24011       55.38421       55.62837
O         42.19700       55.99715       54.57548
O         41.33453       55.65377       56.58747
H         43.17925       51.19938       56.28372
H         45.30312       53.10552       57.26016
H         43.34132       54.44843       58.00440
H         42.21792       53.20585       57.32891
H         43.20150       53.58479       55.03609
H         44.30161       54.83393       55.72828
N         43.24563       51.16408       59.12500
C         43.20471       50.42361       60.36878
H         42.29786       50.70819       60.93992
H         43.15617       49.33680       60.13921
H         44.09975       50.60264       60.99979
H         42.45421       51.03424       58.48502
Ca        39.16546       57.20932       55.13415
O         37.12624       55.50812       53.41678
H         36.42403       54.88257       53.10722
H         37.57701       55.02930       54.15635

Ca 1.0



