%chk=holoCaM-CaMKII.loop1.water2.frame109.chk
%nprocshared=20
%mem=10GB
%nosave
#b3lyp/svp scf=(tight,noincore,xqc) Test 
#IOP(5/87=12) Density=Current Pop=(MK,readradii) iop(6/33=2) iop(6/42=6)

holoCaM-CaMKII.loop1.water2.frame109 

   0  1 
C         24.31599       24.73187       58.57075
C         24.08641       23.90885       57.34215
O         24.13666       22.69120       57.41935
H         25.17789       25.41130       58.40881
H         23.40731       25.33371       58.78456
H         24.52661       24.07959       59.44489
N         23.79683       24.51637       56.16100
C         23.50931       23.76443       54.94840
C         24.76043       23.01295       54.48238
O         25.80077       23.64857       54.37837
C         22.99638       24.71775       53.84111
C         22.24319       23.96536       52.78243
O         21.83562       24.54162       51.79256
O         21.89065       22.68874       53.01739
H         23.73099       25.54659       56.14439
H         22.68389       23.06731       55.20401
H         23.84511       25.29358       53.41167
H         22.26386       25.44142       54.26188
N         24.74303       21.67460       54.18618
C         25.95795       20.90257       53.88903
C         26.08628       20.45059       52.43281
O         27.15655       19.97434       52.07971
C         26.01443       19.64936       54.78906
C         25.89113       19.91513       56.29612
C         27.04720       20.75041       56.85355
C         26.93972       20.87474       58.37906
N         28.04897       21.65984       58.91651
H         23.84420       21.17886       54.20591
H         26.84964       21.53781       54.07776
H         26.95933       19.09415       54.59962
H         25.16909       18.98404       54.50337
H         25.88784       18.92610       56.80461
H         24.92251       20.40963       56.51644
H         27.03330       21.76464       56.40078
H         28.00927       20.25399       56.60087
H         26.95630       19.85928       58.83442
H         25.97914       21.36086       58.65473
H         28.95955       21.20357       58.67817
H         28.02506       22.62897       58.52393
H         27.95834       21.71172       59.95672
N         25.06771       20.56236       51.53627
C         25.19659       20.24492       50.10323
C         24.92607       21.48193       49.24055
O         25.04092       21.37935       48.02701
C         24.33603       19.01397       49.66234
C         22.86251       19.11722       49.93405
O         22.45032       20.12084       50.70203
O         22.08818       18.24074       49.58570
H         24.17888       20.92968       51.89057
H         26.24395       19.95180       49.87295
H         24.70769       18.10694       50.18720
H         24.48495       18.85547       48.57253
N         24.63259       22.69853       49.79075
C         24.50769       23.92461       49.02254
C         23.32316       23.93875       48.08996
O         23.50533       24.17819       46.90493
H         24.56044       22.80510       50.81122
H         25.45105       24.11021       48.46363
H         24.36815       24.76968       49.73216
N         22.06668       23.74531       48.57624
C         20.85174       23.89901       47.78026
C         19.93595       24.98555       48.36792
O         18.83122       25.15028       47.87007
C         20.15668       22.52786       47.61203
C         19.60549       21.91980       48.86441
O         19.64081       22.58817       50.02290
O         19.09213       20.81387       48.82584
H         21.96748       23.49823       49.56998
H         21.10331       24.21965       46.74582
H         20.89879       21.82250       47.17750
H         19.31598       22.62740       46.89268
N         20.34933       25.79804       49.39207
C         19.57755       26.92087       49.90897
C         18.67283       26.58690       51.08432
O         18.04046       27.50872       51.58147
H         21.31915       25.73165       49.72386
H         18.99232       27.39412       49.09024
H         20.29460       27.69211       50.26575
N         18.52463       25.31917       51.57037
C         17.59612       24.96683       52.64974
C         18.27260       24.13339       53.73601
O         19.43686       23.79531       53.59448
C         16.39291       24.19381       52.05772
C         15.61490       25.03377       51.03320
O         16.80248       22.97480       51.49223
H         19.03917       24.56047       51.11623
H         17.20132       25.88747       53.13368
H         15.67850       23.95899       52.87430
H         17.22283       23.16327       50.61412
H         16.25479       25.29577       50.16333
H         14.74276       24.45593       50.66281
H         15.25086       25.97090       51.50422
N         17.58822       23.76905       54.86218
C         18.15435       22.95584       55.94014
C         17.26740       21.73008       56.16678
O         16.07564       21.90478       56.38590
C         18.27156       23.79317       57.25508
C         19.06538       25.10460       57.00774
C         18.94632       22.95079       58.36079
C         19.18553       25.99970       58.24603
H         16.62008       24.10595       54.97953
H         19.18443       22.62847       55.68305
H         17.24900       24.07100       57.59578
H         18.53572       25.70116       56.23481
H         20.08586       24.87319       56.63121
H         18.37088       22.02900       58.55672
H         19.98203       22.67213       58.06675
H         18.98022       23.49198       59.32663
H         18.17953       26.23952       58.65152
H         19.79821       25.52139       59.03689
H         19.69201       26.94796       57.96931
N         17.79527       20.46930       56.21817
C         17.01153       19.28551       56.59296
C         17.25715       18.94039       58.05244
O         18.07951       19.57234       58.69267
C         17.35026       18.05532       55.70068
C         16.92088       18.22712       54.24375
O         18.71430       17.72066       55.79183
H         18.81497       20.36956       56.12287
H         15.92364       19.50112       56.51049
H         16.77751       17.17563       56.06209
H         19.22100       18.30704       55.17242
H         17.15763       17.30020       53.67691
H         15.82637       18.40217       54.18408
H         17.46037       19.07616       53.78892
N         16.55445       17.94004       58.65265
C         16.77301       17.52037       60.03704
C         18.19934       17.03419       60.22238
O         18.87463       17.47407       61.14168
C         15.79129       16.38803       60.44402
C         14.33878       16.87251       60.47874
O         15.90326       15.29720       59.56417
H         15.84380       17.44611       58.09266
H         16.59542       18.37604       60.72748
H         16.06403       16.07016       61.47894
H         15.59243       14.49218       60.05452
H         13.99811       17.20667       59.47749
H         13.67976       16.04397       60.81496
H         14.23514       17.71332       61.19681
N         18.71404       16.12252       59.35637
C         20.04846       15.53967       59.45433
C         21.11406       16.61803       59.47515
O         21.95670       16.59772       60.36154
C         20.26447       14.54729       58.28717
C         19.30185       13.34757       58.42024
C         19.42955       12.35501       57.26060
C         18.42804       11.18833       57.37887
N         18.65720       10.36788       58.57099
H         18.11705       15.84620       58.56382
H         20.13808       14.96116       60.40118
H         21.30697       14.16077       58.31266
H         20.10826       15.06927       57.31620
H         18.24687       13.68808       58.44615
H         19.52818       12.84050       59.38072
H         20.46554       11.95723       57.20985
H         19.21273       12.89210       56.31078
H         18.53504       10.54697       56.47683
H         17.38640       11.58165       57.39318
H         19.64320       10.02019       58.58618
H         18.45380       10.90807       59.44151
H         18.00967        9.54745       58.54833
N         21.10418       17.62341       58.56119
C         22.07632       18.71573       58.55576
C         22.08551       19.44764       59.88842
O         23.13379       19.49556       60.51702
C         21.77420       19.67846       57.39295
C         22.04846       18.98128       56.04873
C         21.68764       19.81973       54.86689
O         21.10639       21.02339       55.01688
O         21.92144       19.39745       53.74782
H         20.34812       17.61999       57.86054
H         23.09739       18.30080       58.39612
H         22.43064       20.57350       57.45561
H         20.71800       20.01873       57.46238
H         21.48132       18.03352       55.96320
H         23.13031       18.73933       55.99503
N         20.95636       20.01345       60.39494
C         20.89982       20.67714       61.68256
H         20.55885       21.72410       61.54583
H         20.17540       20.14558       62.33567
H         21.88329       20.69086       62.19787
H         20.08608       19.95609       59.85823
Ca        20.84786       21.13126       51.80417
O         19.87503       18.01975       52.19846
H         20.78900       17.65556       52.09025
H         19.33165       17.24077       52.47524
O         17.91292       20.32021       51.59370
H         17.68730       19.57022       50.98910
H         17.06318       20.52410       52.05831

Ca 1.0



