%chk=holoCaM.loop2.water2.frame304.chk
%nprocshared=20
%mem=10GB
%nosave
#b3lyp/svp scf=(tight,noincore,xqc) Test 
#IOP(5/87=12) Density=Current Pop=(MK,readradii) iop(6/33=2) iop(6/42=6)

holoCaM.loop2.water2.frame304 

   -2  1 
C         14.07066       39.02948       49.46699
C         13.68178       39.53005       48.10694
O         14.05238       40.63524       47.74045
H         14.68815       39.77833       50.00641
H         13.16354       38.80147       50.06304
H         14.67028       38.09958       49.35301
N         12.96458       38.72658       47.27811
C         12.67714       39.06834       45.89155
C         11.70108       40.23870       45.77436
O         10.59433       40.14498       46.28609
C         12.12130       37.82334       45.16576
C         12.15219       37.95717       43.67300
O         11.72288       37.05399       42.97422
O         12.72406       39.02734       43.09441
H         12.69928       37.79180       47.62765
H         13.64773       39.32205       45.41432
H         11.08889       37.61224       45.51954
H         12.75732       36.94275       45.40151
N         12.05003       41.36436       45.08585
C         11.18320       42.52790       44.89653
C         10.95136       42.82123       43.40675
O         10.60393       43.94557       43.07139
C         11.84224       43.72964       45.58890
H         12.98822       41.40348       44.66627
H         10.19136       42.38928       45.37893
H         11.98383       43.51148       46.66936
H         12.83078       43.95614       45.13845
H         11.19857       44.63184       45.50600
N         11.08990       41.84487       42.46004
C         10.98977       42.08536       41.01153
C         10.92243       40.81704       40.12401
O         10.84090       40.99550       38.91576
C         12.17084       42.98465       40.55286
C         13.47266       42.49993       41.12659
O         13.86371       41.22273       40.97730
O         14.12542       43.24302       41.84024
H         11.30404       40.91216       42.80355
H         10.03661       42.61513       40.79300
H         12.01057       44.02251       40.91799
H         12.22047       43.04268       39.44460
N         10.88883       39.53267       40.59804
C         10.72604       38.35689       39.74664
C         11.87316       38.04257       38.79349
O         11.73575       37.08136       38.05003
H         10.87732       39.34511       41.60022
H          9.79392       38.48230       39.15437
H         10.59123       37.46430       40.39576
N         13.01084       38.79073       38.72277
C         14.05401       38.57224       37.71652
C         14.96781       37.36471       37.97512
O         15.89874       37.17564       37.20415
C         14.84968       39.87929       37.49310
C         15.67965       40.37238       38.64559
N         16.33867       41.54541       38.52262
O         15.76236       39.73601       39.68384
H         13.08931       39.61396       39.32752
H         13.55495       38.40815       36.73536
H         14.11663       40.67749       37.23991
H         15.52412       39.75293       36.61916
H         16.26990       42.10053       37.65742
H         16.91220       41.90671       39.29141
N         14.74702       36.47612       38.98778
C         15.54876       35.27485       39.19645
C         16.93516       35.49523       39.78342
O         17.61889       34.49983       39.97980
H         13.91654       36.58413       39.58024
H         15.62506       34.71605       38.23783
H         15.01337       34.62057       39.91817
N         17.42192       36.72784       40.10990
C         18.74346       36.94518       40.70811
C         18.61803       37.67143       42.04283
O         17.51005       38.00244       42.44111
C         19.64138       37.75795       39.73616
C         19.83705       37.04721       38.38987
O         19.15279       39.06504       39.55200
H         16.83879       37.55268       39.93061
H         19.25234       35.97523       40.90188
H         20.65573       37.84726       40.17820
H         18.35375       39.01773       38.96757
H         20.27277       36.03800       38.54977
H         18.87107       36.94038       37.85297
H         20.53200       37.63591       37.75433
N         19.72958       38.00684       42.76185
C         19.68557       38.83743       43.95963
C         20.24638       40.19388       43.57344
O         21.39866       40.26859       43.16584
C         20.51360       38.21742       45.12753
C         20.13056       36.75683       45.47464
C         20.44963       39.10963       46.38409
C         18.71874       36.56020       46.02529
H         20.65849       37.74606       42.39801
H         18.63609       38.96903       44.30479
H         21.57736       38.17586       44.80238
H         20.84667       36.38046       46.23886
H         20.25181       36.12309       44.57067
H         19.40532       39.23313       46.74116
H         21.06158       38.67284       47.20050
H         20.85509       40.11729       46.17114
H         18.57389       37.11955       46.97255
H         17.96545       36.87668       45.28107
H         18.56334       35.48291       46.24644
N         19.47947       41.31401       43.66929
C         19.98186       42.64822       43.35685
C         20.62807       43.23637       44.58975
O         20.60151       42.59633       45.62611
C         18.83252       43.55588       42.87743
C         18.18248       43.02606       41.63528
O         17.58487       41.82051       41.64641
O         18.17990       43.69362       40.61351
H         18.52813       41.22786       44.05095
H         20.74634       42.58765       42.55026
H         19.22920       44.57000       42.65831
H         18.06055       43.64372       43.67313
N         21.26032       44.44156       44.56012
C         21.86382       45.01326       45.75757
C         20.80306       45.38654       46.79613
O         20.98629       44.99450       47.94085
C         22.82172       46.17511       45.42578
C         23.56003       46.65305       46.65864
C         24.36554       45.76894       47.40604
C         23.45166       47.99026       47.07372
C         25.03368       46.21406       48.54895
C         24.12959       48.43260       48.21419
C         24.91668       47.54501       48.95270
H         21.34261       44.94288       43.66247
H         22.51768       44.22769       46.19500
H         22.28176       47.01272       44.94788
H         23.57643       45.81189       44.69457
H         24.47880       44.73313       47.11388
H         22.84404       48.69094       46.51540
H         25.64314       45.52558       49.12079
H         24.04338       49.46462       48.52658
H         25.43755       47.88818       49.83691
N         19.64649       46.07544       46.49964
C         18.58964       46.37851       47.47162
C         17.95634       45.17024       48.16657
O         17.06916       45.36459       48.98560
C         17.49993       47.05245       46.62043
C         18.30513       47.71313       45.52981
C         19.31401       46.62192       45.19972
H         19.01805       47.07974       48.22074
H         16.89059       46.26870       46.10887
H         16.80898       47.71487       47.18400
H         17.71571       48.07007       44.65805
H         18.84850       48.57435       45.98021
H         18.84603       45.82218       44.59108
H         20.15810       47.08498       44.66130
N         18.32921       43.89909       47.85478
C         17.71747       42.68331       48.36266
C         18.72504       41.95490       49.23325
O         18.39773       41.63616       50.36740
C         17.24273       41.85031       47.14778
C         16.24649       42.69182       46.32876
C         15.77512       42.08428       45.05169
O         16.15720       40.86887       44.62023
O         15.03370       42.74839       44.34973
H         19.04818       43.75084       47.14686
H         16.82491       42.90783       48.98993
H         16.76212       40.90662       47.48434
H         18.11492       41.59031       46.50880
H         16.72588       43.64683       46.02833
H         15.36022       42.92758       46.95662
N         19.99743       41.73216       48.79720
C         21.04382       41.14626       49.60669
H         21.85272       41.89655       49.74521
H         20.68170       40.83259       50.60646
H         21.46728       40.26630       49.08240
H         20.27022       42.03731       47.86069
Ca        15.21569       40.46480       42.61501
O         14.86740       37.38657       41.92820
H         14.68037       36.41802       42.00738
H         14.08696       37.75975       41.44952
O         15.67599       37.93693       44.67242
H         15.91575       38.31576       45.55503
H         15.28615       37.05085       44.87745

Ca 1.0



