%chk=holoCaM.loop4.water3.frame362.chk
%nprocshared=20
%mem=10GB
%nosave
#b3lyp/svp scf=(tight,noincore,xqc) Test 
#IOP(5/87=12) Density=Current Pop=(MK,readradii) iop(6/33=2) iop(6/42=6)

holoCaM.loop4.water3.frame362 

   -3  1 
C         -5.95073       13.35419       62.61049
C         -7.32009       13.57589       62.03972
O         -7.51117       14.53941       61.31290
H         -5.25415       14.15694       62.28556
H         -5.99797       13.34679       63.71891
H         -5.55579       12.37924       62.25354
N         -8.33223       12.71323       62.33876
C         -9.67845       12.82732       61.78155
C        -10.62049       11.85732       62.47993
O        -10.37453       10.65907       62.48870
C         -9.64321       12.60417       60.25926
C        -11.00331       12.49001       59.63331
O        -11.25301       11.50750       58.95425
O        -11.98816       13.38728       59.82092
H         -8.12706       11.94211       62.99424
H        -10.05722       13.85425       61.96723
H         -9.08519       11.66781       60.03504
H         -9.10258       13.43982       59.77397
N        -11.72574       12.35266       63.10779
C        -12.64545       11.57799       63.93118
C        -14.07160       11.60040       63.35361
O        -14.88457       10.80125       63.79472
C        -12.62929       12.21186       65.37232
C        -11.17642       12.33368       65.92010
C        -13.52373       11.45300       66.37327
C        -11.06770       13.14883       67.21452
H        -11.89120       13.36255       63.05364
H        -12.30463       10.51996       63.97126
H        -13.02924       13.24767       65.27605
H        -10.54729       12.87561       65.18491
H        -10.73450       11.32565       66.06972
H        -13.54086       11.95943       67.35789
H        -14.58118       11.43978       66.05127
H        -13.16298       10.41190       66.50680
H         -9.99827       13.25857       67.49308
H        -11.49304       14.16546       67.06659
H        -11.58131       12.65367       68.06138
N        -14.47645       12.54349       62.44859
C        -15.87670       12.76434       62.07978
C        -16.13580       12.82303       60.56493
O        -17.29290       12.96845       60.19445
C        -16.37068       14.05606       62.78923
C        -15.43718       15.22935       62.59672
O        -14.95321       15.50254       61.37669
O        -14.97348       15.80501       63.56679
H        -13.79913       13.23023       62.10802
H        -16.51426       11.93512       62.45645
H        -16.41685       13.85554       63.88384
H        -17.40217       14.29800       62.45785
N        -15.14895       12.69081       59.63090
C        -15.38982       12.65892       58.18755
C        -15.90359       13.94731       57.54678
O        -16.12457       13.92662       56.34430
H        -14.18908       12.52313       59.94629
H        -16.11101       11.84132       57.96873
H        -14.43470       12.40713       57.67684
N        -16.12821       15.09180       58.25189
C        -16.66875       16.31615       57.65896
C        -15.78340       16.91249       56.56522
O        -16.31527       17.24627       55.51462
C        -17.04654       17.36382       58.74115
C        -15.96839       17.86068       59.66851
O        -14.82908       17.43905       59.61582
O        -16.28492       18.77001       60.60864
H        -15.95139       15.08648       59.25846
H        -17.64662       16.06889       57.18487
H        -17.83424       16.91612       59.38517
H        -17.48951       18.24530       58.22897
N        -14.43733       17.06144       56.72309
C        -13.55963       17.65614       55.72253
C        -12.70765       18.79308       56.27083
O        -11.89218       19.30428       55.51934
H        -13.99864       16.69284       57.57306
H        -14.13236       18.03580       54.84796
H        -12.87088       16.86631       55.35621
N        -12.83066       19.24299       57.55586
C        -12.02136       20.31326       58.13397
C        -11.26600       19.81152       59.36227
O        -11.34284       18.63671       59.68647
C        -12.93668       21.49768       58.51242
C        -13.61541       22.12058       57.28714
C        -14.29983       23.40980       57.66645
N        -15.63268       23.56756       57.50888
O        -13.63384       24.33168       58.11612
H        -13.54074       18.83323       58.16786
H        -11.26237       20.68438       57.41166
H        -12.32282       22.29496       58.97275
H        -13.70222       21.18121       59.25604
H        -14.33417       21.39356       56.85108
H        -12.84986       22.36108       56.51777
H        -16.21525       22.80787       57.13031
H        -16.08253       24.45795       57.76936
N        -10.53080       20.68764       60.11189
C         -9.80443       20.33113       61.32124
C        -10.55051       20.91088       62.51009
O        -10.75732       22.11471       62.56120
C         -8.35546       20.89935       61.24912
C         -7.55457       20.60667       62.52898
C         -7.59536       20.34080       60.03943
H        -10.50428       21.67934       59.84364
H         -9.74701       19.22657       61.43841
H         -8.41108       22.00548       61.13362
H         -8.03681       21.08074       63.40457
H         -7.46915       19.51350       62.70502
H         -6.53459       21.04019       62.45265
H         -8.12064       20.59427       59.09512
H         -6.58059       20.79203       59.99037
H         -7.49507       19.23735       60.11447
N        -10.94496       20.09643       63.53030
C        -11.53337       20.59300       64.76810
C        -10.41325       20.83248       65.76784
O         -9.27136       20.52018       65.47240
C        -12.57215       19.55343       65.26906
C        -13.32356       19.93089       66.52185
N        -14.10665       21.03297       66.55851
O        -13.24535       19.21548       67.50916
H        -10.68170       19.10307       63.49121
H        -12.03866       21.56507       64.58033
H        -12.04912       18.58502       65.44106
H        -13.32999       19.39570       64.47604
H        -14.20198       21.64014       65.73258
H        -14.62421       21.27557       67.41665
N        -10.65506       21.44211       66.95662
C         -9.62431       21.64334       67.97295
C         -9.16296       20.31716       68.56854
O         -7.96790       20.15502       68.77181
C        -10.06397       22.70535       69.00445
C        -11.41824       22.48082       69.63241
C        -12.50277       23.28205       69.22783
C        -11.62034       21.50267       70.61535
C        -13.76736       23.09933       69.78448
C        -12.88858       21.32973       71.18368
C        -13.96649       22.12650       70.76575
O        -15.19412       21.97048       71.29964
H        -11.60362       21.79651       67.12837
H         -8.73218       22.10942       67.49269
H        -10.11491       23.65564       68.42664
H         -9.28830       22.86268       69.78483
H        -12.37406       24.04239       68.46660
H        -10.79673       20.88641       70.94981
H        -14.59168       23.71768       69.45134
H        -13.03307       20.57799       71.94852
H        -15.37744       21.31558       71.98734
N        -10.03510       19.28977       68.79229
C         -9.60877       17.95829       69.24035
C         -8.73891       17.22385       68.21102
O         -8.24034       16.15652       68.54070
C        -10.83583       17.07085       69.56683
C        -11.67106       17.59345       70.74820
C        -10.88653       17.59078       72.03180
O        -10.43542       16.54576       72.47396
O        -10.68158       18.73941       72.70342
H        -11.03474       19.46301       68.62652
H         -9.00088       18.07751       70.16370
H        -10.50444       16.03989       69.82276
H        -11.48050       16.99972       68.66269
H        -12.55669       16.93652       70.88236
H        -12.04089       18.61494       70.53120
N         -8.50449       17.72460       66.96330
C         -7.65848       17.08418       65.95780
C         -6.41804       17.91874       65.65974
O         -5.51363       17.39415       65.02462
C         -8.45485       16.91857       64.64825
C         -9.74434       16.10896       64.84181
C        -10.65266       16.16509       63.64648
O        -11.88038       15.62829       63.73815
O        -10.32571       16.74091       62.62097
H         -8.95910       18.59568       66.69753
H         -7.31250       16.09378       66.32700
H         -7.83015       16.44650       63.85682
H         -8.73025       17.94071       64.30513
H        -10.32403       16.53890       65.68307
H         -9.49456       15.05386       65.08163
N         -6.31200       19.22502       66.04555
C         -5.15696       20.05537       65.78265
H         -4.33467       19.49697       65.29120
H         -5.45669       20.90153       65.12856
H         -4.78227       20.46507       66.74417
H         -7.08674       19.68953       66.52723
Ca       -12.73741       15.20249       60.94414
O         -9.76530       16.17227       59.51687
H         -8.81261       16.21962       59.25451
H         -9.76033       15.69559       60.38262
O        -13.22221       18.41389       61.97022
H        -13.83416       19.18571       61.87136
H        -13.62845       17.86614       62.68655
O        -11.99631       15.26603       57.87130
H        -12.58623       14.56650       57.49212
H        -11.52760       15.65251       57.09148

Ca 1.0



