%chk=holoCaM-CaMKII.loop4.water1.frame345.chk
%nprocshared=20
%mem=10GB
%nosave
#b3lyp/svp scf=(tight,noincore,xqc) Test 
#IOP(5/87=12) Density=Current Pop=(MK,readradii) iop(6/33=2) iop(6/42=6)

holoCaM-CaMKII.loop4.water1.frame345 

   -3  1 
C         21.44321       60.48458       37.83707
C         21.08827       59.32375       36.95603
O         21.32074       58.18535       37.32826
H         22.15468       61.14997       37.30348
H         20.52350       61.06088       38.07615
H         21.90828       60.14128       38.78424
N         20.49919       59.55928       35.75685
C         20.07502       58.51884       34.82588
C         21.27354       57.72655       34.29464
O         22.23504       58.33955       33.85276
C         19.33939       59.19735       33.65839
C         18.64805       58.24274       32.74265
O         18.13186       58.67877       31.73439
O         18.54537       56.93232       33.02816
H         20.31707       60.54591       35.51011
H         19.34646       57.85257       35.34295
H         20.06735       59.80598       33.07922
H         18.54975       59.87637       34.05076
N         21.25751       56.35974       34.27074
C         22.37733       55.52169       33.82064
C         22.07411       54.79253       32.49535
O         23.01306       54.30730       31.88048
C         22.76101       54.51892       34.97116
C         23.08775       55.30101       36.27314
C         23.92073       53.57751       34.58817
C         23.43944       54.42339       37.47926
H         20.40682       55.89743       34.59895
H         23.25046       56.17505       33.60568
H         21.88010       53.87110       35.17585
H         22.19372       55.88827       36.56156
H         23.92701       56.00615       36.09390
H         24.12713       52.85027       35.39871
H         23.65588       52.94351       33.72047
H         24.84197       54.15474       34.36815
H         23.56520       55.06572       38.37640
H         22.63759       53.68601       37.67977
H         24.39529       53.88447       37.32612
N         20.80966       54.65397       32.00056
C         20.47953       53.90951       30.77317
C         19.66727       54.73808       29.76218
O         19.31514       54.20268       28.72037
C         19.78255       52.57538       31.15170
C         18.51920       52.73781       31.94220
O         17.93782       51.76305       32.38902
O         18.03190       53.96544       32.14914
H         20.04043       55.03494       32.55578
H         21.40869       53.60696       30.24277
H         20.49369       51.99692       31.78017
H         19.56900       51.97791       30.23855
N         19.39603       56.05991       29.96367
C         18.75719       56.92987       28.98341
C         17.27177       56.70223       28.76326
O         16.86389       56.56808       27.61856
H         19.75277       56.51838       30.81072
H         19.31351       56.88247       28.02110
H         18.84618       57.97490       29.34802
N         16.39523       56.74050       29.80864
C         14.93389       56.78399       29.66314
C         14.33250       57.99535       30.39245
O         13.11792       58.07221       30.51226
C         14.30132       55.45006       30.10453
C         14.52226       55.05524       31.52808
O         14.20472       53.93204       31.88496
O         15.12904       55.86775       32.40487
H         16.78625       56.78160       30.75966
H         14.64931       56.87791       28.59189
H         14.75476       54.65732       29.46912
H         13.20770       55.45613       29.90710
N         15.12326       59.01405       30.84342
C         14.63592       60.22768       31.48280
C         14.18006       60.08255       32.92635
O         13.79907       61.10186       33.48658
H         16.12236       58.99474       30.62516
H         13.82761       60.66984       30.86191
H         15.47350       60.95972       31.50602
N         14.18803       58.89711       33.60534
C         13.75586       58.76371       35.00204
C         14.84920       58.15152       35.87193
O         15.86656       57.72716       35.33558
C         12.40352       58.01053       35.05972
C         12.39533       56.59185       34.45699
C         13.09469       55.58320       35.32332
N         12.59868       55.26869       36.53971
O         14.09532       55.01786       34.91750
H         14.49892       58.05453       33.11304
H         13.56214       59.77325       35.42700
H         11.69125       58.61680       34.45830
H         12.01183       57.98774       36.09899
H         12.82663       56.61613       33.43678
H         11.34509       56.24863       34.34608
H         11.73250       55.70466       36.88684
H         13.06948       54.56605       37.12285
N         14.73927       58.14641       37.23799
C         15.80639       57.67719       38.12580
C         15.26111       56.64951       39.12090
O         14.49249       57.02777       39.99595
C         16.43883       58.89744       38.87203
C         17.61763       58.48375       39.76918
C         16.92897       59.97253       37.88430
H         13.89930       58.56578       37.66801
H         16.61215       57.20375       37.52606
H         15.66127       59.36770       39.51542
H         18.43670       58.04580       39.16136
H         18.01940       59.37084       40.30586
H         17.29849       57.74986       40.53521
H         17.71101       59.56300       37.20971
H         16.08950       60.35870       37.26916
H         17.35335       60.83877       38.43720
N         15.61525       55.33014       39.05114
C         15.19373       54.33178       40.03825
C         15.94697       54.48865       41.35722
O         16.84715       55.30676       41.46573
C         15.45916       52.88036       39.53169
C         14.48882       52.38621       38.49459
N         14.91041       51.58561       37.49183
O         13.29348       52.59944       38.63114
H         16.19196       55.01926       38.25949
H         14.10546       54.43992       40.24081
H         15.30238       52.16002       40.35468
H         16.51695       52.74328       39.21577
H         15.90212       51.31767       37.41828
H         14.23454       51.18566       36.82344
N         15.64604       53.64370       42.38883
C         16.41040       53.51237       43.62669
C         17.84720       53.13654       43.31609
O         18.75800       53.73445       43.87004
C         15.80160       52.37522       44.47930
C         16.55631       52.17498       45.76988
C         16.52623       53.16094       46.76779
C         17.30446       51.00394       45.97994
C         17.22851       52.97608       47.96170
C         18.01404       50.82555       47.17009
C         17.97547       51.81096       48.16720
O         18.65069       51.64986       49.32266
H         14.85102       53.00003       42.26022
H         16.37540       54.46366       44.20144
H         15.82913       51.43781       43.87875
H         14.73533       52.58484       44.70987
H         15.95320       54.06822       46.62293
H         17.35040       50.23460       45.21852
H         17.19216       53.74051       48.72712
H         18.59323       49.92222       47.31499
H         19.17878       50.85913       49.50310
N         18.10793       52.13979       42.42507
C         19.44695       51.73022       42.02356
C         20.21560       52.93177       41.50359
O         21.32380       53.18298       41.95617
C         19.32624       50.63384       40.93062
C         20.66947       50.01621       40.51622
C         20.45875       48.94518       39.47948
O         19.69483       47.87094       39.75994
O         20.98231       49.03992       38.38080
H         17.30310       51.67597       41.97540
H         19.97798       51.29261       42.89831
H         18.82163       51.05367       40.03096
H         18.68705       49.81542       41.33015
H         21.15759       49.55733       41.40246
H         21.33991       50.80198       40.10594
N         19.66574       53.71597       40.53686
C         20.37556       54.81808       39.89619
C         20.55043       56.03591       40.80444
O         21.28768       56.93625       40.42734
C         19.65562       55.23307       38.58983
C         19.41895       54.02802       37.65318
C         18.79185       54.41150       36.35124
O         19.27749       54.01331       35.30718
O         17.64937       55.11830       36.32099
H         18.72285       53.46638       40.21232
H         21.38147       54.43901       39.61522
H         20.27346       55.99234       38.06977
H         18.67224       55.68804       38.83876
H         18.72264       53.30902       38.11998
H         20.37296       53.49802       37.45848
N         19.88524       56.15312       41.98980
C         20.00266       57.28918       42.88346
H         20.72827       58.04593       42.52059
H         19.00960       57.77567       42.99185
H         20.33192       56.93707       43.88439
H         19.23523       55.41817       42.27596
Ca        16.53786       54.68732       33.61270
O         16.35432       52.14688       34.97654
H         16.31546       51.16318       35.07228
H         17.32036       52.34395       34.90585

Ca 1.0



