%chk=holoCaM-CaMKII.loop2.water1.frame350.chk
%nprocshared=20
%mem=10GB
%nosave
#b3lyp/svp scf=(tight,noincore,xqc) Test 
#IOP(5/87=12) Density=Current Pop=(MK,readradii) iop(6/33=2) iop(6/42=6)

holoCaM-CaMKII.loop2.water1.frame350 

   -2  1 
C         40.19126       50.10857       41.32259
C         41.49717       50.58913       41.89523
O         42.22136       51.30028       41.21488
H         39.55664       50.98550       41.07010
H         40.36690       49.50830       40.40789
H         39.63033       49.48643       42.05355
N         41.83086       50.28262       43.17727
C         42.99089       50.84045       43.86234
C         44.29588       50.16861       43.43483
O         44.37696       48.94990       43.50338
C         42.79708       50.66188       45.38401
C         43.72775       51.50191       46.20748
O         44.47423       52.31152       45.68324
O         43.68034       51.41528       47.54894
H         41.15996       49.72132       43.72572
H         43.00479       51.93803       43.67135
H         42.90691       49.58869       45.65276
H         41.77309       50.98843       45.66599
N         45.37909       50.90987       43.05443
C         46.68387       50.33688       42.70972
C         47.81036       50.78403       43.65056
O         48.91827       50.28870       43.49562
C         47.04549       50.75414       41.27847
H         45.27614       51.93011       43.03051
H         46.63808       49.22760       42.75485
H         47.13199       51.86189       41.21323
H         48.01636       50.31044       40.96922
H         46.26264       50.41880       40.56696
N         47.62923       51.75561       44.59134
C         48.70786       52.34058       45.39384
C         48.36828       52.47505       46.88204
O         49.23023       52.93321       47.62051
C         49.07302       53.72523       44.79663
C         47.85118       54.50828       44.38472
O         46.85327       54.74926       45.25275
O         47.70188       54.81184       43.21167
H         46.71133       52.20509       44.65514
H         49.62561       51.71287       45.34877
H         49.66981       53.55135       43.87345
H         49.71621       54.30352       45.49446
N         47.16611       52.10702       47.41047
C         46.83846       52.22904       48.82686
C         46.76119       53.65376       49.37157
O         46.51377       53.78186       50.56239
H         46.46475       51.66875       46.80764
H         47.58930       51.65764       49.41399
H         45.84816       51.75860       49.00581
N         46.96756       54.76614       48.60339
C         46.97938       56.12709       49.14871
C         45.60732       56.65440       49.60232
O         45.55450       57.78460       50.06834
C         47.64548       57.11255       48.15537
C         46.88823       57.39563       46.88498
N         47.37352       58.30737       46.01446
O         45.83778       56.82766       46.63850
H         47.20773       54.64504       47.61627
H         47.65645       56.12338       50.03211
H         48.65506       56.73054       47.88575
H         47.78328       58.08413       48.67669
H         48.25791       58.80003       46.20339
H         46.85544       58.53822       45.15951
N         44.46837       55.90444       49.53354
C         43.17619       56.34959       50.04318
C         42.38127       57.26327       49.11950
O         41.26760       57.60066       49.49413
H         44.52605       54.93229       49.21217
H         43.30787       56.81542       51.04571
H         42.54176       55.44945       50.18829
N         42.85453       57.70226       47.91667
C         42.09183       58.56152       47.00251
C         42.04609       57.97268       45.59018
O         42.62548       56.92388       45.35442
C         42.71454       59.98194       46.98151
C         42.62631       60.66651       48.35346
O         44.03846       59.95879       46.50497
H         43.80655       57.44580       47.64497
H         41.04002       58.66579       47.34817
H         42.12698       60.62783       46.29760
H         44.61736       59.58501       47.21880
H         43.02482       61.70030       48.28374
H         41.56519       60.72223       48.68068
H         43.20677       60.11018       49.11865
N         41.40652       58.63947       44.58144
C         41.41238       58.20505       43.18649
C         42.40754       59.07625       42.43253
O         42.26626       60.29139       42.43318
C         39.98198       58.29113       42.55869
C         38.99069       57.36857       43.31513
C         40.02328       57.93204       41.05858
C         37.56392       57.39353       42.75058
H         40.96054       59.54446       44.78849
H         41.75037       57.14814       43.10722
H         39.62255       59.34150       42.63924
H         38.93767       57.69531       44.37541
H         39.35540       56.31842       43.29104
H         40.33772       56.87913       40.91669
H         39.03802       58.08340       40.57586
H         40.71434       58.59976       40.51300
H         36.90285       56.76160       43.37929
H         37.16487       58.42961       42.73830
H         37.52626       56.97274       41.72416
N         43.43783       58.49995       41.74725
C         44.41003       59.24667       40.95149
C         43.90494       59.38900       39.53085
O         42.82376       58.90679       39.24501
C         45.76935       58.51529       40.95152
C         46.32326       58.35184       42.33403
O         45.65216       57.62613       43.24581
O         47.39626       58.85270       42.62983
H         43.48675       57.47277       41.71527
H         44.54809       60.26672       41.37412
H         46.50119       59.08929       40.34437
H         45.65740       57.50596       40.49831
N         44.61471       60.05809       38.57941
C         44.11744       60.22614       37.21857
C         43.91943       58.88410       36.50452
O         42.82227       58.68283       36.00655
C         45.00287       61.19304       36.39906
C         44.39554       61.47869       35.04493
C         43.15424       62.13440       34.94729
C         45.05939       61.09103       33.86848
C         42.58769       62.39239       33.69687
C         44.48687       61.34954       32.61892
C         43.25245       61.99928       32.53332
H         45.51352       60.49240       38.83944
H         43.12511       60.72467       37.29501
H         46.02179       60.79210       36.27690
H         45.10587       62.15618       36.94423
H         42.62471       62.44944       35.83748
H         46.01439       60.58271       33.91700
H         41.63250       62.89728       33.63129
H         44.99978       61.04486       31.71617
H         42.81079       62.19891       31.56584
N         44.88810       57.91243       36.40352
C         44.67930       56.62524       35.73826
C         43.44007       55.90120       36.23697
O         42.63375       55.43812       35.44295
C         45.92995       55.81176       36.12087
C         46.97881       56.88663       36.24426
C         46.21511       57.97701       36.98647
H         44.64149       56.78816       34.63834
H         45.82334       55.38445       37.14435
H         46.16939       54.97864       35.42602
H         47.92630       56.57312       36.73269
H         47.20616       57.25459       35.21773
H         46.13524       57.75978       38.07351
H         46.75601       58.92143       36.82610
N         43.24391       55.79110       37.57605
C         42.13560       55.09587       38.22562
C         40.80337       55.70033       37.81730
O         39.88463       54.95501       37.50792
C         42.35321       55.12820       39.76229
C         43.64282       54.35020       40.10636
C         44.12580       54.43086       41.51846
O         45.20608       53.92628       41.76901
O         43.47589       55.07451       42.50534
H         43.93865       56.26145       38.17505
H         42.13129       54.02293       37.92772
H         41.49721       54.65895       40.29476
H         42.44146       56.18504       40.08810
H         44.49278       54.73861       39.51514
H         43.51240       53.28180       39.83224
N         40.64760       57.04684       37.72460
C         39.42016       57.67014       37.28537
H         38.60334       57.44519       38.00091
H         39.55851       58.77223       37.23246
H         39.14876       57.30375       36.27235
H         41.44198       57.65410       37.92943
Ca        44.82813       55.12730       44.31836
O         43.04225       54.65551       46.80163
H         42.07611       54.75446       46.99069
H         43.36848       54.04160       47.50252

Ca 1.0



