%chk=holoCaM.loop3.water2.frame104.chk
%nprocshared=20
%mem=10GB
%nosave
#b3lyp/svp scf=(tight,noincore,xqc) Test 
#IOP(5/87=12) Density=Current Pop=(MK,readradii) iop(6/33=2) iop(6/42=6)

holoCaM.loop3.water2.frame104 

   0  1 
C        101.11155        4.91508       40.61118
C        100.94691        3.90612       39.51514
O        101.51757        2.82773       39.59534
H        101.56471        5.83932       40.19211
H        100.11944        5.16290       41.04288
H        101.77196        4.52675       41.41433
N        100.19337        4.22213       38.42907
C        100.01535        3.35438       37.27479
C        100.78733        3.98091       36.14496
O        100.47759        5.10053       35.75979
C         98.50739        3.21277       36.97718
C         98.14377        2.51129       35.69177
O         98.47432        1.22769       35.43923
O         97.45991        3.10915       34.87908
H         99.77204        5.16430       38.38991
H        100.43750        2.34875       37.47157
H         98.06276        4.23227       36.93629
H         98.02281        2.67909       37.81635
N        101.85478        3.32574       35.60456
C        102.72153        3.92202       34.59822
C        102.57386        3.22357       33.25724
O        103.20080        3.65953       32.30184
C        104.18574        3.92420       35.08880
C        104.31630        4.51239       36.50939
C        105.76533        4.77369       36.95126
C        106.67951        3.54088       36.88671
N        108.01208        3.86183       37.40018
H        102.08428        2.37484       35.93555
H        102.42967        4.98171       34.42984
H        104.78811        4.52640       34.37404
H        104.57883        2.88434       35.10025
H        103.83334        3.81841       37.23323
H        103.78231        5.48615       36.55874
H        105.73274        5.14661       37.99904
H        106.19887        5.57339       36.31301
H        106.77453        3.20521       35.83097
H        106.24539        2.71094       37.48620
H        108.63321        3.02756       37.29460
H        108.42560        4.65994       36.86468
H        107.95327        4.11344       38.41383
N        101.71019        2.17780       33.09533
C        101.39458        1.57086       31.81127
C         99.94163        1.86829       31.42432
O         99.52206        1.44055       30.35827
C        101.74866        0.06962       31.84584
C        101.06701       -0.68613       32.94874
O        101.79734       -1.26436       33.92150
O         99.85484       -0.78442       32.96846
H        101.18461        1.81682       33.90385
H        102.01257        2.01775       31.00206
H        102.84667       -0.01529       32.00049
H        101.50756       -0.40278       30.86931
N         99.14827        2.67901       32.19326
C         97.84544        3.17449       31.78067
C         96.71990        2.16517       31.73620
O         95.62231        2.58903       31.39926
H         99.51369        3.08091       33.06670
H         97.94678        3.65940       30.78599
H         97.53021        3.96695       32.49333
N         96.86867        0.83950       32.03323
C         95.74580       -0.08731       31.89011
C         94.62675        0.17417       32.89768
O         93.52896       -0.31980       32.68365
C         96.20158       -1.56127       31.90523
C         96.59098       -2.08015       33.26882
N         95.98693       -3.17979       33.77387
O         97.46003       -1.52136       33.91749
H         97.79573        0.47781       32.28596
H         95.34327        0.08751       30.86593
H         97.05883       -1.67432       31.20624
H         95.37237       -2.18733       31.50930
H         95.25970       -3.67817       33.24034
H         96.25475       -3.54572       34.69732
N         94.83852        0.91914       34.02547
C         93.79314        1.27020       34.97686
C         93.97003        0.63006       36.34108
O         93.16399        0.92703       37.21225
H         95.78366        1.26795       34.22971
H         92.79088        0.96505       34.60525
H         93.78536        2.37580       35.08364
N         94.92594       -0.31291       36.58665
C         94.98532       -1.09096       37.82300
C         96.39225       -1.15148       38.38046
O         97.30348       -1.46480       37.62556
C         94.54681       -2.53398       37.50334
C         93.12781       -2.59398       36.99035
C         92.86554       -3.02450       35.68009
C         92.05306       -2.22493       37.81679
C         91.55530       -3.08097       35.20083
C         90.74092       -2.28690       37.33788
C         90.48838       -2.71520       36.02633
O         89.22891       -2.78173       35.55061
H         95.56257       -0.59127       35.82547
H         94.29469       -0.69635       38.59997
H         94.61948       -3.16948       38.41324
H         95.24347       -2.95453       36.74703
H         93.67264       -3.31318       35.02571
H         92.22939       -1.89515       38.83280
H         91.37066       -3.41191       34.18654
H         89.92243       -2.00335       37.98706
H         88.46193       -2.54429       36.09070
N         96.62582       -0.99457       39.71942
C         97.92600       -1.27886       40.32245
C         97.81183       -2.51816       41.19401
O         97.10553       -2.50232       42.19225
C         98.53467       -0.05764       41.08553
C         97.70523        0.42126       42.31200
C         98.75678        1.08739       40.09185
C         98.37803        1.54288       43.10992
H         95.83633       -0.76746       40.34317
H         98.66271       -1.52359       39.52579
H         99.53443       -0.37603       41.45961
H         97.58979       -0.40560       43.03544
H         96.69648        0.75767       41.99273
H         97.78150        1.45890       39.71814
H         99.30142        1.92304       40.56556
H         99.37473        0.74281       39.23711
H         97.76445        1.77738       44.00530
H         99.38416        1.21973       43.45028
H         98.46949        2.47544       42.51930
N         98.48023       -3.65725       40.85919
C         98.51755       -4.82456       41.73637
C         99.34600       -4.50405       42.97152
O         99.88905       -3.41242       43.05147
C         99.14414       -6.01729       40.99091
O        100.46295       -5.71832       40.60593
H         99.00152       -3.68360       39.96893
H         97.48046       -5.10810       42.02262
H         98.50761       -6.25041       40.10419
H         99.15360       -6.92440       41.63148
H        100.53985       -5.89889       39.63321
N         99.52304       -5.41478       43.96900
C        100.47850       -5.17692       45.04697
C        101.90216       -5.18281       44.49857
O        102.74684       -4.48145       45.03775
C        100.34418       -6.22308       46.15323
H         99.00719       -6.30744       43.93563
H        100.25641       -4.19139       45.51698
H        100.54971       -7.24213       45.76519
H        101.05645       -5.99541       46.97641
H         99.31500       -6.19196       46.57146
N        102.23323       -5.95222       43.41412
C        103.56971       -5.98890       42.81715
C        103.99026       -4.66615       42.17357
O        105.12384       -4.57767       41.72243
C        103.63361       -7.09603       41.75529
H        101.50705       -6.56228       43.00964
H        104.29676       -6.24615       43.61847
H        104.65940       -7.18108       41.33756
H        103.36416       -8.07319       42.20974
H        102.92686       -6.88176       40.92498
N        103.14634       -3.59875       42.10292
C        103.50077       -2.29808       41.55720
C        103.50800       -1.28578       42.68495
O        104.54376       -0.67840       42.91825
C        102.49170       -1.88302       40.47244
C        102.62104       -2.70660       39.18325
C        101.59977       -2.22722       38.19357
O        100.79447       -3.00149       37.70243
O        101.52726       -0.91211       37.91581
H        102.19970       -3.68699       42.47718
H        104.52005       -2.30369       41.10876
H        102.68176       -0.81807       40.20974
H        101.45460       -1.96134       40.86910
H        102.48306       -3.79191       39.38189
H        103.63517       -2.54729       38.75693
N        102.39414       -1.06390       43.43883
C        102.35144       -0.13752       44.55077
H        101.56588        0.62263       44.36671
H        102.10284       -0.69479       45.47843
H        103.31781        0.38586       44.70508
H        101.53094       -1.58123       43.23201
Ca        99.93163       -0.00332       36.62451
O        100.19394       -3.89100       34.13673
H        100.13466       -4.76673       34.59420
H        101.07145       -3.91251       33.67886
O         98.17984       -4.04499       36.61406
H         97.54586       -4.18286       37.36178
H         97.97983       -4.77884       35.98089

Ca 1.0



