%chk=holoCaM-CaMKII.loop2.water1.frame404.chk
%nprocshared=20
%mem=10GB
%nosave
#b3lyp/svp scf=(tight,noincore,xqc) Test 
#IOP(5/87=12) Density=Current Pop=(MK,readradii) iop(6/33=2) iop(6/42=6)

holoCaM-CaMKII.loop2.water1.frame404 

   -2  1 
C         53.37368       64.36721       43.64116
C         53.28866       63.06892       42.89254
O         53.00470       62.05506       43.51138
H         52.39587       64.56704       44.13009
H         54.16160       64.30843       44.42000
H         53.60127       65.21495       42.96147
N         53.51772       63.02136       41.55014
C         53.31534       61.81693       40.75518
C         54.62713       61.08136       40.53289
O         55.54060       61.65760       39.95834
C         52.70266       62.20734       39.39322
C         52.33243       61.01708       38.55460
O         52.41582       59.77052       39.05489
O         51.91989       61.18238       37.41833
H         53.77522       63.89303       41.06113
H         52.58603       61.15322       41.27239
H         53.43860       62.82635       38.83330
H         51.78545       62.81535       39.54778
N         54.77096       59.78416       40.93722
C         55.96288       58.98560       40.68396
C         55.59917       57.71303       39.91748
O         55.89678       56.62253       40.38584
C         56.64680       58.67665       42.02275
H         53.99857       59.33480       41.44424
H         56.69074       59.55248       40.06493
H         56.91647       59.62458       42.53547
H         55.96945       58.09581       42.68596
H         57.57835       58.09462       41.85558
N         54.96006       57.78730       38.71110
C         54.61712       56.61969       37.88992
C         54.00378       57.03047       36.54447
O         54.57630       56.66169       35.52841
C         53.76136       55.56027       38.63319
C         52.68031       56.09742       39.51212
O         51.71085       56.87519       39.02610
O         52.66903       55.80945       40.69968
H         54.72477       58.72388       38.35028
H         55.55806       56.08406       37.63055
H         54.42708       54.96158       39.29195
H         53.33265       54.84541       37.89809
N         52.87560       57.79404       36.44223
C         52.29893       58.22877       35.17577
C         50.84602       57.81985       34.98467
O         50.26811       58.23769       33.99115
H         52.42409       58.14345       37.28755
H         52.87992       57.85136       34.30769
H         52.34357       59.33842       35.15435
N         50.18333       57.00694       35.86035
C         48.78483       56.60032       35.67287
C         47.77024       57.74512       35.86996
O         46.58460       57.49402       35.70372
C         48.45499       55.39108       36.58826
C         48.51287       55.70058       38.05602
N         48.32305       54.73001       38.97754
O         48.73424       56.83797       38.41969
H         50.70700       56.60840       36.65142
H         48.67796       56.21607       34.63429
H         49.18767       54.58291       36.37250
H         47.43961       55.00477       36.35514
H         48.14204       53.75786       38.69058
H         48.36647       54.95198       39.98292
N         48.14802       59.02052       36.19288
C         47.21549       60.14110       36.28344
C         46.36155       60.20041       37.54329
O         45.56709       61.12513       37.63669
H         49.14610       59.24488       36.28695
H         46.57056       60.15032       35.37803
H         47.80147       61.08552       36.27259
N         46.47164       59.29627       38.55804
C         45.67469       59.34000       39.78671
C         46.56348       59.47281       41.02458
O         47.77854       59.49486       40.90386
C         44.79218       58.06339       39.86509
C         43.74696       58.05662       38.74678
O         45.57037       56.89693       39.76133
H         47.14197       58.53080       38.46240
H         45.00282       60.22617       39.79575
H         44.21525       58.04009       40.81522
H         46.17485       56.87143       40.54729
H         44.23140       58.03945       37.74808
H         43.09909       57.15941       38.84179
H         43.10234       58.95937       38.82037
N         46.00124       59.53588       42.26724
C         46.76275       59.59012       43.51151
C         46.82834       58.19724       44.09766
O         45.80744       57.54066       44.24977
C         46.12667       60.59507       44.52157
C         46.21705       62.06610       44.03906
C         46.72539       60.46261       45.94043
C         47.64107       62.63951       43.95835
H         44.97668       59.45970       42.34771
H         47.80791       59.90982       43.32335
H         45.04801       60.33952       44.61885
H         45.64406       62.70041       44.75084
H         45.73462       62.15931       43.04358
H         46.24459       61.18651       46.63096
H         46.53309       59.45220       46.35621
H         47.82121       60.62803       45.94278
H         48.14233       62.62245       44.94871
H         48.26431       62.09056       43.22508
H         47.59030       63.70021       43.63597
N         48.03232       57.72499       44.51745
C         48.25260       56.42627       45.12909
C         48.49936       56.63160       46.59796
O         48.43786       57.76187       47.06809
C         49.45990       55.74074       44.46718
C         49.28869       55.66281       42.99036
O         49.04269       56.80550       42.33087
O         49.46506       54.61708       42.38524
H         48.85212       58.33942       44.43875
H         47.35359       55.78096       45.02211
H         49.65665       54.73163       44.88731
H         50.36148       56.36715       44.64607
N         48.71965       55.57033       47.41083
C         48.75108       55.72351       48.85033
C         49.86958       56.64243       49.32944
O         49.53416       57.59776       50.01387
C         48.70054       54.35941       49.55680
C         48.26914       54.56140       50.98742
C         46.92632       54.33688       51.34258
C         49.16793       55.03176       51.95744
C         46.48957       54.58755       52.64378
C         48.72822       55.27104       53.26282
C         47.38976       55.05343       53.60427
H         48.75772       54.62349       47.00172
H         47.78074       56.20833       49.11760
H         49.62813       53.75890       49.46879
H         47.90030       53.78056       49.04272
H         46.20929       53.99533       50.60509
H         50.20394       55.21609       51.70245
H         45.45048       54.42932       52.90239
H         49.42324       55.63440       54.00759
H         47.04775       55.25049       54.61125
N         51.19952       56.47013       49.04022
C         52.22258       57.36999       49.55009
C         52.21500       58.72291       48.84918
O         52.87192       59.62698       49.34812
C         53.52186       56.59462       49.31980
C         53.21958       55.86666       48.02489
C         51.77637       55.40247       48.24891
H         52.09134       57.53439       50.64309
H         54.45146       57.20410       49.33737
H         53.60349       55.81230       50.10889
H         53.22621       56.62981       47.21307
H         53.92847       55.05737       47.74916
H         51.29165       55.27086       47.25926
H         51.73648       54.46285       48.83807
N         51.52950       58.94183       47.68744
C         51.48772       60.25410       47.04608
C         50.48427       61.16493       47.74297
O         50.50827       62.36202       47.49461
C         51.07619       60.14239       45.56617
C         51.99934       59.21508       44.75569
C         51.55212       59.06184       43.32742
O         52.14517       58.28649       42.59748
O         50.49699       59.74643       42.84308
H         51.04672       58.15381       47.23433
H         52.50795       60.69916       47.08064
H         51.07459       61.15432       45.10444
H         50.04427       59.75041       45.53198
H         52.00081       58.20263       45.20676
H         53.03976       59.60562       44.77285
N         49.52026       60.65178       48.56363
C         48.49592       61.44141       49.21197
H         47.49867       61.10148       48.85976
H         48.55333       61.28140       50.30872
H         48.59648       62.52486       48.99981
H         49.46917       59.64002       48.71914
Ca        50.13237       57.22991       40.50422
O         49.44371       60.26131       38.88051
H         49.44149       60.93939       39.60108
H         49.44188       60.79768       38.05084

Ca 1.0



