%chk=holoCaM.loop3.water2.frame51.chk
%nprocshared=20
%mem=10GB
%nosave
#b3lyp/svp scf=(tight,noincore,xqc) Test 
#IOP(5/87=12) Density=Current Pop=(MK,readradii) iop(6/33=2) iop(6/42=6)

holoCaM.loop3.water2.frame51 

   0  1 
C        100.41638       80.69574       37.20027
C        100.71386       82.11652       37.59371
O        101.82567       82.40309       38.01146
H         99.37243       80.58578       36.83248
H        101.10524       80.37271       36.39408
H        100.53754       80.03139       38.08184
N         99.73317       83.05340       37.51981
C         99.86542       84.44024       37.94212
C         99.06804       84.54692       39.21621
O         97.88589       84.85998       39.19445
C         99.42467       85.33949       36.77211
C         99.20489       86.79759       37.05636
O        100.12150       87.59915       37.63332
O         98.15105       87.29781       36.69740
H         98.79665       82.75154       37.20527
H        100.91626       84.70964       38.19157
H         98.47665       84.94539       36.34358
H        100.19902       85.26849       35.98591
N         99.66148       84.10688       40.36268
C         98.97234       83.94385       41.63432
C         98.58605       85.30265       42.18243
O         97.40560       85.56483       42.36521
C         99.84649       83.15121       42.64662
C        100.42945       81.81989       42.09798
C         99.42003       80.86314       41.44359
C         98.37479       80.32561       42.42537
N         97.45983       79.40739       41.74733
H        100.64851       83.82284       40.29744
H         98.05759       83.33611       41.46014
H         99.23009       82.94534       43.54762
H        100.71629       83.76072       42.97296
H        100.96474       81.29587       42.91879
H        101.19854       82.04251       41.33066
H         99.98735       80.00055       41.02985
H         98.92131       81.36669       40.58786
H         97.79049       81.16403       42.86082
H         98.89317       79.78741       43.24976
H         97.99097       78.60810       41.33058
H         96.77313       79.03253       42.44037
H         96.93961       79.91318       40.99358
N         99.55121       86.24055       42.41096
C         99.27357       87.61615       42.83097
C         98.40077       88.38775       41.82624
O         97.94323       89.46837       42.17237
C        100.58727       88.39650       43.11448
C        101.44033       88.53284       41.87994
O        101.94307       87.43250       41.28358
O        101.61941       89.63102       41.38304
H        100.52410       85.94230       42.27869
H         98.70621       87.55641       43.78619
H        101.17584       87.88738       43.90671
H        100.31780       89.40866       43.49152
N         98.08856       87.88621       40.59359
C         97.10783       88.48389       39.70178
C         97.50645       89.79019       39.04842
O         96.66598       90.33180       38.34389
H         98.48513       86.99093       40.29594
H         96.16205       88.62840       40.26883
H         96.88482       87.76819       38.88305
N         98.73042       90.37473       39.21280
C         99.02762       91.68732       38.63244
C         99.03663       91.69713       37.10293
O         99.01917       92.77817       36.52956
C        100.33956       92.27051       39.19853
C        101.59213       91.60540       38.67409
N        102.55288       92.34347       38.07158
O        101.75205       90.40205       38.80293
H         99.42826       89.91824       39.81478
H         98.21181       92.36042       38.97994
H        100.31485       92.18785       40.30686
H        100.37911       93.35310       38.95068
H        102.44886       93.36196       37.95716
H        103.41636       91.89940       37.73345
N         99.10296       90.54133       36.38090
C         99.08512       90.47139       34.92948
C        100.39881       89.99096       34.33614
O        100.44490       89.82987       33.12668
H         99.17937       89.65157       36.87931
H         98.86846       91.46436       34.47794
H         98.26623       89.78302       34.62862
N        101.52880       89.83455       35.09491
C        102.84591       89.56457       34.51847
C        103.52530       88.38979       35.20195
O        103.49103       88.30558       36.41919
C        103.75132       90.80877       34.64146
C        103.18962       91.99375       33.88409
C        102.06574       92.69389       34.36053
C        103.78588       92.40451       32.67983
C        101.53816       93.76638       33.63684
C        103.25464       93.47549       31.95543
C        102.12540       94.15753       32.43008
O        101.59748       95.18612       31.73661
H        101.48895       90.02285       36.10514
H        102.77803       89.35585       33.42804
H        104.73482       90.53020       34.20097
H        103.93815       91.08883       35.69590
H        101.59386       92.41413       35.29229
H        104.65214       91.88499       32.28979
H        100.66868       94.29075       34.01351
H        103.71858       93.76975       31.02265
H        101.96760       95.48067       30.89221
N        104.23273       87.48195       34.46245
C        104.97346       86.36062       35.03855
C        106.46003       86.50299       34.71554
O        106.83205       86.43974       33.55277
C        104.38227       85.02419       34.49420
C        102.94081       84.84490       35.03974
C        105.25925       83.81117       34.85404
C        102.23338       83.59041       34.52257
H        104.26647       87.59855       33.43891
H        104.87252       86.35163       36.14360
H        104.35478       85.08245       33.38285
H        102.32767       85.72170       34.74090
H        102.96422       84.80485       36.15217
H        106.28254       83.92828       34.44842
H        105.30302       83.67328       35.94832
H        104.87201       82.88491       34.38784
H        102.74219       82.66743       34.86473
H        101.20160       83.54649       34.92173
H        102.18409       83.60772       33.41457
N        107.36933       86.68671       35.72155
C        108.81640       86.74502       35.50115
C        109.38620       85.36471       35.18151
O        108.65725       84.38620       35.22880
C        109.51977       87.31769       36.75212
O        109.31752       86.49698       37.87420
H        107.01336       86.80808       36.68015
H        109.02375       87.44472       34.66206
H        109.15161       88.35225       36.94646
H        110.61309       87.41195       36.58191
H        108.63794       86.93535       38.44925
N        110.70822       85.20936       34.87236
C        111.32886       83.90284       34.63489
C        111.46521       83.05662       35.90661
O        111.95987       81.94211       35.80834
C        112.72210       84.09325       34.02187
H        111.28917       86.05701       34.78124
H        110.71877       83.34930       33.88626
H        112.64231       84.67189       33.07715
H        113.38949       84.63582       34.72477
H        113.17812       83.10846       33.77994
N        111.04720       83.50582       37.12528
C        111.16006       82.75030       38.36653
C        109.80138       82.20413       38.74330
O        109.69352       81.00600       38.96653
C        111.72606       83.65123       39.46673
H        110.60119       84.42529       37.19377
H        111.85521       81.88793       38.25272
H        112.73304       84.01693       39.17300
H        111.06574       84.52812       39.64014
H        111.82052       83.08252       40.41642
N        108.70015       83.00955       38.74922
C        107.34435       82.50833       38.95492
C        107.06245       81.37205       37.98555
O        106.72549       80.28653       38.43768
C        106.30717       83.63782       38.76223
C        106.37503       84.69483       39.87268
C        105.32121       85.74617       39.67620
O        105.33764       86.46268       38.68914
O        104.35371       85.90703       40.59738
H        108.82482       84.00569       38.52290
H        107.24124       82.10963       39.98914
H        105.28626       83.19455       38.78209
H        106.46686       84.12466       37.77716
H        107.37001       85.18529       39.89937
H        106.20227       84.19431       40.84961
N        107.23170       81.53813       36.64478
C        107.04784       80.47463       35.67737
H        106.28015       80.77523       34.93597
H        108.00768       80.29358       35.14831
H        106.72885       79.52124       36.14885
H        107.53776       82.45264       36.29010
Ca       101.81727       87.23702       39.05182
O        104.65525       88.96045       41.15952
H        104.70122       88.44002       42.00034
H        105.48091       89.50624       41.15924
O        105.07952       89.69348       38.28329
H        105.43840       89.84550       37.37334
H        105.26293       90.53748       38.76605

Ca 1.0



