%chk=holoCaM-CaMKII.loop3.water3.frame263.chk
%nprocshared=20
%mem=10GB
%nosave
#b3lyp/svp scf=(tight,noincore,xqc) Test 
#IOP(5/87=12) Density=Current Pop=(MK,readradii) iop(6/33=2) iop(6/42=6)

holoCaM-CaMKII.loop3.water3.frame263 

   0  1 
C         62.96988      102.36768       49.31944
C         61.66226      101.64042       49.34086
O         61.17977      101.27163       48.27848
H         63.74040      101.71148       48.86142
H         62.87108      103.29267       48.71553
H         63.29893      102.63647       50.34449
N         61.03894      101.36173       50.52088
C         59.81530      100.58221       50.56654
C         58.67301      101.33979       49.90458
O         58.34583      102.44218       50.32107
C         59.47054      100.15263       52.00755
C         58.40477       99.08580       52.01825
O         58.06629       98.56155       53.05814
O         57.88407       98.66185       50.85856
H         61.48173      101.65445       51.40533
H         60.02488       99.64295       50.01290
H         59.17643      101.03091       52.61656
H         60.37530       99.69496       52.46302
N         58.04190      100.78423       48.83669
C         57.00036      101.43093       48.04663
C         55.79116      101.80296       48.90362
O         55.35259      102.94098       48.81325
C         56.68884      100.52298       46.83044
C         55.95202      101.20934       45.66666
C         56.04528      100.31977       44.40557
C         55.51208      100.97890       43.12359
N         54.06730      101.19087       43.16272
H         58.35767       99.84918       48.54077
H         57.43352      102.36584       47.62479
H         56.17751       99.58617       47.14068
H         57.68436      100.24482       46.41500
H         56.46881      102.16678       45.43543
H         54.90065      101.42712       45.94770
H         55.53448       99.34777       44.57654
H         57.12125      100.10982       44.21068
H         55.74823      100.30671       42.26751
H         56.03613      101.94479       42.94581
H         53.57851      100.27800       43.30940
H         53.81438      101.86242       43.92097
H         53.76245      101.59081       42.24559
N         55.26259      100.93432       49.82098
C         54.16663      101.29197       50.73397
C         54.59289      101.34140       52.20888
O         53.73483      101.59267       53.04490
C         52.94170      100.36958       50.52441
C         53.14630       98.91625       50.84346
O         54.33853       98.45074       51.24189
O         52.20878       98.14287       50.73876
H         55.68591       99.99931       49.90099
H         53.79921      102.31608       50.50549
H         52.60864      100.44972       49.46816
H         52.11334      100.73744       51.16980
N         55.89103      101.18835       52.60870
C         56.31777      101.34488       53.99787
C         55.88097      100.23519       54.94194
O         56.12430      100.37680       56.13221
H         56.62062      101.05319       51.90025
H         55.93654      102.32044       54.37332
H         57.42430      101.39001       54.04674
N         55.23715       99.11210       54.51064
C         54.71071       98.09292       55.42310
C         55.77672       97.30669       56.19782
O         55.40046       96.52791       57.06223
C         53.76567       97.13290       54.65984
C         54.47658       96.14772       53.75701
N         54.24277       94.81988       53.87472
O         55.25673       96.54424       52.90760
H         55.04263       99.02095       53.50831
H         54.07516       98.63620       56.15729
H         53.06146       97.74456       54.05334
H         53.15443       96.56812       55.39544
H         53.57465       94.45864       54.57067
H         54.71588       94.14837       53.25283
N         57.10887       97.43227       55.93099
C         58.16688       96.72443       56.63608
C         58.94511       95.77292       55.74225
O         59.95992       95.26684       56.20010
H         57.41237       98.07008       55.19501
H         57.77821       96.13800       57.49598
H         58.86448       97.48989       57.03888
N         58.50531       95.41793       54.49789
C         59.17986       94.42799       53.65252
C         59.35311       94.94361       52.23921
O         58.66071       95.87747       51.86312
C         58.29305       93.17051       53.60292
C         58.19548       92.54057       54.96646
C         57.05422       92.72529       55.76454
C         59.26267       91.77265       55.45622
C         56.98856       92.15529       57.03937
C         59.18785       91.18922       56.72292
C         58.05121       91.38264       57.52141
O         57.97045       90.83317       58.74968
H         57.60486       95.79165       54.16414
H         60.18272       94.16977       54.05902
H         58.66543       92.41220       52.87933
H         57.28381       93.48521       53.25620
H         56.22602       93.32624       55.41038
H         60.14692       91.61767       54.85009
H         56.11142       92.31575       57.65350
H         60.01473       90.59017       57.08251
H         58.68259       90.29020       59.11700
N         60.25166       94.36526       51.38393
C         60.34291       94.74448       49.97298
C         60.34163       93.52582       49.05877
O         60.50585       92.40658       49.52579
C         61.56273       95.66977       49.68528
C         62.91584       94.97176       49.96921
C         61.42627       96.97995       50.48144
C         64.12327       95.79489       49.51039
H         60.88450       93.63533       51.74637
H         59.42866       95.30929       49.70359
H         61.52602       95.93357       48.60445
H         62.95606       94.01119       49.41352
H         63.01191       94.75101       51.05421
H         62.19707       97.71974       50.18721
H         60.44319       97.44062       50.27616
H         61.50132       96.79552       51.57334
H         65.05541       95.22478       49.70570
H         64.05556       95.99751       48.41975
H         64.19855       96.75610       50.05696
N         60.12878       93.69241       47.72178
C         60.12818       92.60865       46.74283
C         61.03025       92.95684       45.56250
O         61.62300       94.02510       45.55230
C         58.68421       92.36965       46.26784
O         58.17813       93.51286       45.63977
H         59.91118       94.64087       47.38177
H         60.48671       91.66156       47.20223
H         58.05966       92.12028       47.15511
H         58.64946       91.51425       45.55920
H         57.22831       93.31852       45.42943
N         61.15286       92.10408       44.50618
C         61.89133       92.43327       43.28778
C         61.27002       93.63273       42.59392
O         61.98292       94.56999       42.26454
C         61.87710       91.24457       42.32011
H         60.67141       91.19327       44.55552
H         62.95687       92.64364       43.53253
H         62.44930       91.49708       41.40076
H         62.35550       90.36335       42.79668
H         60.83841       90.97654       42.03069
N         59.92467       93.66844       42.37067
C         59.22457       94.76641       41.70900
C         59.56440       96.10313       42.32856
O         59.92164       97.02235       41.60481
C         57.70700       94.54301       41.79985
H         59.36212       92.87708       42.72093
H         59.50526       94.79241       40.63315
H         57.37646       94.50774       42.86157
H         57.16236       95.36613       41.28940
H         57.42979       93.58411       41.31380
N         59.48536       96.27306       43.67328
C         59.76005       97.54212       44.33457
C         61.18202       97.98751       44.04422
O         61.36698       99.06294       43.49152
C         59.52907       97.43128       45.85260
C         58.08790       96.98800       46.19419
C         57.85466       96.91317       47.66590
O         56.69265       96.43689       48.15087
O         58.70794       97.30108       48.44593
H         59.22685       95.45230       44.23584
H         59.05073       98.30881       43.94901
H         59.72633       98.42581       46.31258
H         60.24408       96.70076       46.28940
H         57.88292       95.98308       45.79302
H         57.35129       97.69313       45.75718
N         62.23760       97.18952       44.36109
C         63.60396       97.54846       44.05386
H         64.28953       96.73810       44.38323
H         63.72089       97.68246       42.95711
H         63.88005       98.48702       44.57783
H         62.06769       96.28506       44.81632
Ca        56.53842       96.96497       50.30792
O         53.72283       94.95906       50.50457
H         53.05964       95.67600       50.65980
H         53.21392       94.12064       50.63756
O         54.19117       97.68023       48.01786
H         53.92361       96.82508       48.43912
H         54.27395       97.46558       47.05491
O         56.55235       93.81630       50.66417
H         56.48347       93.49688       49.73001
H         55.88525       93.27866       51.16044

Ca 1.0



