%chk=holoCaM.loop3.water1.frame13.chk
%nprocshared=20
%mem=10GB
%nosave
#b3lyp/svp scf=(tight,noincore,xqc) Test 
#IOP(5/87=12) Density=Current Pop=(MK,readradii) iop(6/33=2) iop(6/42=6)

holoCaM.loop3.water1.frame13 

   0  1 
C         56.83349       24.58942       39.96882
C         56.97900       25.92171       39.29036
O         56.34582       26.87942       39.70985
H         57.15444       24.68067       41.02805
H         55.77769       24.25475       39.92925
H         57.46852       23.81597       39.48461
N         57.84307       26.06253       38.25155
C         58.12033       27.33781       37.60448
C         56.91697       27.81828       36.78476
O         56.26198       27.01085       36.14049
C         59.39598       27.18780       36.75769
C         59.96378       28.50272       36.32651
O         59.22710       29.29473       35.55057
O         61.11078       28.81076       36.60129
H         58.38395       25.23354       37.95721
H         58.37147       28.07916       38.39510
H         59.18604       26.55411       35.86815
H         60.17739       26.68301       37.36718
N         56.57467       29.13751       36.78374
C         55.39948       29.70402       36.11483
C         55.40945       29.46656       34.60335
O         54.42188       28.95561       34.09399
C         55.29620       31.20626       36.48221
C         53.95108       31.87725       36.13905
C         53.89087       33.28069       36.78283
C         52.54732       34.00929       36.61036
N         52.27227       34.35173       35.21601
H         57.17581       29.77485       37.32602
H         54.49596       29.21914       36.54844
H         56.13642       31.77656       36.03070
H         55.39218       31.25948       37.58989
H         53.12420       31.26906       36.56718
H         53.82520       31.93298       35.03780
H         54.70787       33.91976       36.38453
H         54.04618       33.16494       37.87925
H         52.59222       34.95180       37.20248
H         51.71841       33.39234       37.02329
H         53.05391       34.92879       34.82863
H         52.14394       33.48778       34.64409
H         51.39057       34.91295       35.17450
N         56.49128       29.78970       33.83081
C         56.54005       29.61351       32.37152
C         57.49633       28.50863       31.91179
O         57.45699       28.18786       30.73136
C         56.80154       30.97820       31.68064
C         57.95715       31.73573       32.28085
O         57.73778       32.73182       32.95146
O         59.21521       31.28433       32.19335
H         57.31689       30.17924       34.30198
H         55.55062       29.25929       32.00602
H         55.89216       31.59457       31.84679
H         56.93301       30.86407       30.58273
N         58.32491       27.83590       32.76238
C         59.04992       26.62689       32.39162
C         60.55381       26.77746       32.28596
O         61.20235       25.75123       32.13490
H         58.38293       28.12051       33.74171
H         58.70067       26.21925       31.41814
H         58.81356       25.85404       33.15634
N         61.18881       27.98877       32.26555
C         62.62680       28.08565       31.99207
C         63.51725       27.69717       33.17831
O         64.73011       27.77749       33.02869
C         63.02046       29.46186       31.38851
C         62.98223       30.65407       32.30415
N         63.42222       31.85516       31.86639
O         62.58164       30.54714       33.44499
H         60.62436       28.84888       32.30165
H         62.85392       27.38433       31.15663
H         62.37903       29.67052       30.50408
H         64.06841       29.37594       31.02715
H         63.78157       31.96650       30.90758
H         63.42395       32.67190       32.49433
N         63.01910       27.23525       34.36679
C         63.87767       26.82982       35.47501
C         64.46554       27.99054       36.27019
O         65.24328       27.74061       37.17409
H         62.00506       27.09726       34.47955
H         64.68310       26.16713       35.08754
H         63.27940       26.23325       36.19716
N         64.09327       29.27742       36.01942
C         64.54159       30.44913       36.76510
C         63.33339       31.13170       37.37382
O         62.43030       31.50161       36.64087
C         65.24525       31.42689       35.80181
C         66.63658       30.96472       35.46295
C         66.97849       30.54239       34.16873
C         67.62215       30.98663       36.46399
C         68.29095       30.14254       33.88681
C         68.93060       30.59932       36.17840
C         69.27087       30.17462       34.88762
O         70.53387       29.80169       34.59928
H         63.41803       29.44569       35.27587
H         65.23719       30.17568       37.58571
H         65.34950       32.43185       36.26764
H         64.61959       31.55502       34.89132
H         66.23377       30.51775       33.38266
H         67.37863       31.32289       37.46477
H         68.54913       29.81338       32.88843
H         69.67800       30.63560       36.96108
H         71.23865       29.82377       35.26299
N         63.26812       31.34478       38.72514
C         62.12967       31.99262       39.36614
C         62.59005       33.29825       39.99239
O         63.32280       33.27838       40.96967
C         61.47827       31.03273       40.41064
C         61.00885       29.73257       39.70545
C         60.31302       31.72474       41.14549
C         60.39087       28.68992       40.63675
H         64.05152       31.04345       39.32148
H         61.35552       32.23710       38.60923
H         62.24515       30.76131       41.17068
H         61.88386       29.25122       39.21861
H         60.26650       29.97783       38.92130
H         60.66683       32.63122       41.67431
H         59.51229       32.00979       40.43391
H         59.88765       31.06898       41.93062
H         60.14390       27.77957       40.05098
H         61.10628       28.41222       41.43805
H         59.44661       29.05935       41.08531
N         62.19152       34.48590       39.44887
C         62.51918       35.78427       40.03472
C         61.70357       36.01903       41.29596
O         60.86855       35.19310       41.62564
C         62.20854       36.90545       39.01957
O         60.83861       36.93888       38.70479
H         61.64509       34.45952       38.57583
H         63.60809       35.82342       40.25696
H         62.82625       36.76014       38.10219
H         62.49627       37.89730       39.42671
H         60.72712       36.52555       37.80915
N         61.86210       37.15238       42.03582
C         60.94577       37.51664       43.11372
C         59.58743       37.89257       42.53605
O         58.57446       37.52396       43.11400
C         61.49689       38.68120       43.93553
H         62.62295       37.80414       41.78960
H         60.84203       36.66812       43.82826
H         60.79677       38.91396       44.76837
H         62.47097       38.38712       44.38295
H         61.63702       39.58764       43.31229
N         59.49731       38.58068       41.35375
C         58.22836       38.91410       40.69898
C         57.41545       37.68609       40.28743
O         56.29958       37.85464       39.81574
C         58.49924       39.74227       39.43216
H         60.37361       38.87147       40.89308
H         57.62760       39.52770       41.40460
H         59.07528       40.65728       39.68184
H         59.08537       39.14365       38.69936
H         57.54680       40.04984       38.94941
N         57.91962       36.42839       40.41144
C         57.25181       35.21134       39.98596
C         56.93016       34.32838       41.18787
O         55.87797       33.70470       41.18057
C         58.17986       34.52855       38.96561
C         57.58625       33.27479       38.32505
C         58.51724       32.75025       37.26914
O         59.04193       31.51990       37.38343
O         58.80070       33.43611       36.29952
H         58.86675       36.31025       40.77347
H         56.29226       35.44457       39.47140
H         59.15030       34.27460       39.44619
H         58.37633       35.26777       38.15654
H         56.61510       33.52178       37.85209
H         57.41854       32.49687       39.10030
N         57.74967       34.27151       42.27940
C         57.46510       33.49633       43.46876
H         56.52119       32.92013       43.38650
H         58.30114       32.79001       43.65342
H         57.38364       34.18309       44.33901
H         58.61231       34.82136       42.30616
Ca        60.06715       30.83269       34.19978
O         61.28091       33.76509       33.84765
H         61.03829       34.68030       33.55836
H         62.17349       33.86487       34.26479

Ca 1.0



