%chk=holoCaM.loop1.water2.frame364.chk
%nprocshared=20
%mem=10GB
%nosave
#b3lyp/svp scf=(tight,noincore,xqc) Test 
#IOP(5/87=12) Density=Current Pop=(MK,readradii) iop(6/33=2) iop(6/42=6)

holoCaM.loop1.water2.frame364 

   0  1 
C        113.60640        2.59930       88.67644
C        113.49534        1.70240       89.86985
O        113.78731        2.13855       90.97521
H        114.35887        2.17479       87.97893
H        112.62677        2.67330       88.16097
H        113.93599        3.61651       88.97831
N        113.07172        0.41697       89.71819
C        113.04161       -0.52092       90.82757
C        114.44966       -1.02572       91.07475
O        114.97972       -1.76499       90.25583
C        112.08312       -1.68769       90.52810
C        112.17605       -2.75350       91.57867
O        112.55989       -3.87030       91.27334
O        111.88708       -2.47650       92.86067
H        112.79972        0.09209       88.77729
H        112.64770       -0.00241       91.73272
H        112.34390       -2.13845       89.54620
H        111.03889       -1.30761       90.46783
N        115.12491       -0.63207       92.18358
C        116.47385       -1.08167       92.48824
C        116.46830       -2.50855       93.00427
O        117.29279       -3.28773       92.54708
C        117.16889       -0.16239       93.52009
C        117.30094        1.28206       92.99344
C        118.00726        2.24250       93.96763
C        119.43804        1.84829       94.37164
N        120.33150        1.72948       93.21975
H        114.67589        0.05779       92.80005
H        117.11074       -1.01055       91.57640
H        118.18693       -0.56911       93.69758
H        116.64228       -0.17354       94.48940
H        116.29097        1.70118       92.79765
H        117.84739        1.27353       92.02670
H        117.41323        2.32346       94.89644
H        118.03395        3.24919       93.49536
H        119.43113        0.89512       94.94219
H        119.82748        2.63698       95.05350
H        120.04206        0.92863       92.61440
H        120.33048        2.61703       92.66696
H        121.30116        1.54406       93.56356
N        115.60708       -2.90738       93.99376
C        115.75134       -4.18399       94.69467
C        114.64800       -5.20461       94.41207
O        114.11461       -5.79290       95.34390
C        115.96488       -3.91566       96.20722
C        114.78353       -3.30410       96.92602
O        113.73107       -3.07733       96.34942
O        114.88982       -3.01742       98.23702
H        114.87956       -2.25030       94.30800
H        116.67673       -4.68764       94.34085
H        116.83190       -3.22903       96.32174
H        116.21860       -4.86995       96.71717
N        114.36871       -5.57368       93.13041
C        113.64444       -6.79653       92.79831
C        112.20280       -6.93083       93.25285
O        111.68664       -8.03007       93.10743
H        114.81970       -5.06161       92.35731
H        114.21005       -7.63597       93.25765
H        113.66663       -6.94958       91.69760
N        111.47239       -5.90461       93.77218
C        110.08339       -6.07056       94.21769
C        109.08279       -5.38192       93.29467
O        107.89682       -5.40060       93.59566
C        109.94443       -5.64907       95.69888
C        110.24798       -4.21178       96.02974
O        110.55524       -3.40321       95.17104
O        110.18235       -3.81583       97.31398
H        111.90296       -4.97231       93.82769
H        109.78986       -7.14291       94.19257
H        110.63420       -6.28261       96.29658
H        108.90790       -5.86311       96.03962
N        109.47358       -4.82000       92.11518
C        108.56676       -4.21774       91.15230
C        107.92143       -2.92404       91.60494
O        107.19154       -2.35875       90.80282
H        110.45574       -4.88405       91.83388
H        107.78054       -4.95333       90.87342
H        109.14595       -3.98041       90.23251
N        108.11553       -2.39031       92.84824
C        107.49407       -1.14365       93.28709
C        108.57738       -0.17440       93.81027
O        109.71144       -0.27046       93.00096
C        106.43220       -1.44054       94.37417
C        105.31591       -2.35410       93.84886
O        107.01684       -1.99118       95.52853
H        108.71400       -2.87615       93.52379
H        106.98273       -0.65200       92.42956
H        105.94223       -0.49106       94.66951
H        107.30920       -2.91693       95.32265
H        104.55671       -2.51078       94.64319
H        104.82259       -1.88875       92.96948
H        105.71951       -3.34489       93.54933
N        108.08791        1.21699       93.86362
C        109.08483        2.24574       94.24862
C        108.80779        2.80034       95.65265
O        107.78634        3.44392       95.84985
C        109.04285        3.37135       93.16986
C        109.46347        2.79838       91.78811
C        109.92862        4.57437       93.54454
C        109.19556        3.75116       90.62198
H        107.19468        1.31769       94.39469
H        110.11205        1.82922       94.24138
H        107.99079        3.72912       93.10620
H        108.87908        1.88143       91.56672
H        110.54137        2.52027       91.80711
H        109.59877        5.02182       94.50032
H        110.99199        4.27165       93.62900
H        109.83941        5.38318       92.79479
H        108.11077        3.98673       90.57249
H        109.77322        4.69181       90.70664
H        109.49171        3.25869       89.67189
N        109.69991        2.60519       96.66989
C        109.56978        3.21822       97.99491
C        109.87273        4.71118       97.93194
O        110.25377        5.22068       96.88891
C        110.57397        2.58757       99.01391
C        110.24290        1.12826       99.34934
O        111.90037        2.75164       98.56202
H        110.50796        2.00144       96.48954
H        108.53919        3.05679       98.38053
H        110.49704        3.10374       99.99281
H        112.29948        1.86863       98.35501
H        110.95867        0.74903      100.11166
H        109.21684        1.05368       99.76745
H        110.32510        0.50296       98.44678
N        109.79867        5.45636       99.06829
C        110.33567        6.80975       99.19195
C        111.84703        6.79253       98.97592
O        112.37824        7.71387       98.37415
C        110.04193        7.38428      100.60204
C        108.53256        7.57196      100.81916
O        110.57736        6.53392      101.58730
H        109.41592        5.00609       99.91265
H        109.86213        7.48834       98.44668
H        110.52727        8.38504      100.67511
H        110.39114        6.94629      102.47038
H        108.34856        8.02644      101.81541
H        108.11789        8.25277      100.04604
H        107.99326        6.60362      100.77339
N        112.59748        5.76508       99.47150
C        114.05592        5.67683       99.35632
C        114.51198        5.51416       97.90824
O        115.70402        5.62429       97.65257
C        114.59284        4.45211      100.14058
C        114.15798        4.40225      101.61844
C        114.55727        3.06519      102.25327
C        113.88664        2.88860      103.62248
N        114.19797        1.57895      104.19178
H        112.09110        5.01773       99.95706
H        114.48608        6.60827       99.78574
H        115.70422        4.42325      100.08795
H        114.20337        3.53963       99.63742
H        113.05758        4.45753      101.69309
H        114.57933        5.25897      102.18711
H        115.66372        2.99785      102.33699
H        114.19852        2.23751      101.60156
H        112.78196        2.96507      103.49642
H        114.21582        3.69170      104.31711
H        113.88571        0.82087      103.54116
H        115.22581        1.49749      104.36274
H        113.68775        1.47117      105.09793
N        113.62982        5.17905       96.92500
C        113.98523        4.93402       95.53568
C        113.28267        5.91818       94.60411
O        113.51868        5.85087       93.40599
C        113.57995        3.48899       95.18506
C        114.33970        2.44692       96.02837
C        113.78577        1.08756       95.75001
O        112.50976        0.83022       96.04765
O        114.45545        0.23136       95.21007
H        112.64545        5.03300       97.17020
H        115.07922        5.05550       95.37476
H        113.77529        3.28190       94.10835
H        112.48526        3.38575       95.36135
H        114.23528        2.64335       97.11334
H        115.41192        2.49210       95.76778
N        112.41611        6.86560       95.06933
C        111.76562        7.82186       94.20284
H        111.09994        8.47868       94.80452
H        112.52643        8.45403       93.69999
H        111.15138        7.29802       93.44378
H        112.19695        6.93044       96.06752
Ca       111.30742       -0.34890       94.60040
O        112.16537       -1.32489       98.01628
H        112.97435       -0.89798       98.39511
H        111.72175       -1.75201       98.79103
O        109.18268       -1.20560       97.08128
H        108.54971       -1.09572       97.83466
H        109.07597       -0.38174       96.54428

Ca 1.0



