%chk=holoCaM.loop4.water3.frame244.chk
%nprocshared=20
%mem=10GB
%nosave
#b3lyp/svp scf=(tight,noincore,xqc) Test 
#IOP(5/87=12) Density=Current Pop=(MK,readradii) iop(6/33=2) iop(6/42=6)

holoCaM.loop4.water3.frame244 

   -3  1 
C         33.50757       71.84205       62.94982
C         32.44466       72.26489       61.98313
O         32.56956       71.92924       60.81397
H         34.48735       72.25580       62.63095
H         33.28283       72.18525       63.97946
H         33.57166       70.73205       62.95059
N         31.36703       73.00594       62.38559
C         30.29947       73.37013       61.46039
C         29.29551       74.34427       62.09050
O         28.73543       74.04462       63.13548
C         29.54023       72.10180       60.99863
C         28.62729       72.36903       59.83967
O         27.81231       71.39506       59.39535
O         28.66016       73.43927       59.25737
H         31.31510       73.31838       63.36693
H         30.77609       73.85046       60.57673
H         28.95853       71.69888       61.85491
H         30.22937       71.30553       60.65580
N         28.99186       75.51195       61.45302
C         28.03331       76.51831       61.91288
C         26.84329       76.66312       60.93627
O         25.84978       77.25168       61.33972
C         28.80362       77.88357       62.07560
C         29.88779       77.76237       63.18267
C         27.87841       79.08869       62.35152
C         30.81313       78.98118       63.28896
H         29.47666       75.69860       60.57634
H         27.60315       76.21096       62.89173
H         29.31339       78.09544       61.10799
H         30.54041       76.89308       62.96550
H         29.40300       77.58680       64.16736
H         28.45194       80.03532       62.39770
H         27.17039       79.24780       61.51421
H         27.31787       78.95262       63.29894
H         30.26677       79.89345       63.60144
H         31.59049       78.79044       64.05858
H         31.31667       79.16694       62.31674
N         26.89471       76.24751       59.63134
C         25.88523       76.61563       58.62091
C         25.35828       75.46009       57.75607
O         24.49199       75.71450       56.93045
C         26.50703       77.70500       57.71100
C         27.74523       77.23803       56.97675
O         28.11073       75.93910       57.03244
O         28.43387       78.04421       56.37437
H         27.75056       75.79235       59.30976
H         25.00212       77.07164       59.11991
H         26.79965       78.55078       58.37290
H         25.76253       78.09120       56.98178
N         25.82826       74.18550       57.85969
C         25.35462       73.06361       57.05214
C         25.66598       73.10710       55.55056
O         25.26612       72.16991       54.87504
H         26.51530       73.97652       58.58585
H         24.25631       72.96949       57.19035
H         25.81810       72.13381       57.44715
N         26.33564       74.13203       54.94314
C         26.54102       74.22819       53.48976
C         27.53192       73.22045       52.87641
O         27.75138       73.30749       51.67511
C         26.92704       75.67778       53.08918
C         28.24992       76.16846       53.60138
O         29.01356       75.40117       54.39023
O         28.63353       77.28773       53.30415
H         26.62051       74.92887       55.51625
H         25.55587       74.06187       53.00058
H         26.13970       76.37144       53.45551
H         26.94666       75.74670       51.97987
N         28.13659       72.22416       53.58772
C         29.02414       71.23927       52.97293
C         30.44032       71.73151       52.69956
O         31.21155       70.96495       52.14362
H         27.89052       72.09114       54.57229
H         28.55622       70.85893       52.03742
H         29.12967       70.37135       53.65879
N         30.86817       72.96551       53.09302
C         32.23094       73.47083       52.90520
C         32.85109       73.80142       54.26090
O         32.18849       73.62148       55.27002
C         32.18354       74.73868       52.02816
C         31.56640       74.46496       50.64852
C         31.58771       75.69970       49.78478
N         30.91447       76.81641       50.14915
O         32.21625       75.68868       48.73696
H         30.20719       73.58233       53.56760
H         32.87312       72.71376       52.40465
H         33.21541       75.12208       51.87617
H         31.59372       75.52203       52.55170
H         30.51428       74.12437       50.75646
H         32.14732       73.65788       50.14996
H         30.37037       76.84619       51.02315
H         30.93397       77.65588       49.55117
N         34.12160       74.30945       54.35706
C         34.71646       74.71346       55.63160
C         34.99938       76.21048       55.59577
O         35.87356       76.64464       54.86011
C         36.00812       73.89827       55.93272
C         36.65873       74.33467       57.25898
C         35.71018       72.39261       55.99661
H         34.67803       74.44042       53.50056
H         34.00505       74.51745       56.46206
H         36.74383       74.06856       55.11525
H         35.95973       74.18818       58.11034
H         37.58164       73.74594       57.44894
H         36.95706       75.40117       57.22037
H         34.98673       72.16986       56.81020
H         35.29185       72.03237       55.03397
H         36.64716       71.82638       56.19044
N         34.26813       77.05950       56.37463
C         34.50592       78.50185       56.46569
C         35.72869       78.75161       57.34642
O         36.24012       77.80145       57.91080
C         33.20411       79.15484       57.01281
C         33.13565       80.66312       57.02935
N         32.31620       81.32341       56.17634
O         33.78047       81.29788       57.84606
H         33.49312       76.66037       56.91871
H         34.67356       78.89967       55.44047
H         32.96223       78.76863       58.02609
H         32.39779       78.81470       56.33772
H         31.74541       80.81613       55.48422
H         32.25557       82.35190       56.20251
N         36.27101       79.98954       57.51273
C         37.38602       80.24683       58.42658
C         36.99446       79.93938       59.87234
O         37.68652       79.17224       60.52595
C         37.82763       81.72107       58.33710
C         38.98862       81.98138       59.26785
C         40.24005       81.38626       59.03224
C         38.81682       82.79636       60.39810
C         41.30163       81.60415       59.91495
C         39.87659       83.00515       61.28389
C         41.12359       82.40951       61.04482
O         42.15309       82.60033       61.89378
H         35.89005       80.77222       56.96440
H         38.24912       79.60986       58.12859
H         36.96228       82.36454       58.60891
H         38.12305       81.98159       57.29782
H         40.39365       80.75345       58.16673
H         37.85718       83.25375       60.60511
H         42.26163       81.14116       59.72348
H         39.72474       83.62523       62.15797
H         42.06757       83.14282       62.69072
N         35.88066       80.50914       60.41893
C         35.39114       80.27275       61.78114
C         35.36146       78.79324       62.09794
O         35.85697       78.38779       63.14012
C         33.94282       80.82165       61.91903
C         33.81225       82.35446       61.88852
C         34.26579       82.99198       63.17464
O         33.37830       83.66706       63.93151
O         35.42526       82.90734       63.54343
H         35.31189       81.10002       59.79860
H         36.05838       80.75255       62.52567
H         33.47489       80.46846       62.86495
H         33.34170       80.40120       61.08077
H         32.73293       82.59462       61.76813
H         34.35095       82.79296       61.02310
N         34.79595       77.93153       61.22014
C         34.67563       76.49470       61.44512
C         36.05848       75.89008       61.59725
O         36.34537       75.30259       62.63099
C         33.86794       75.86306       60.28562
C         32.46591       76.50481       60.24598
C         31.63045       76.16002       59.06483
O         30.60334       76.79616       58.88927
O         31.95264       75.20780       58.17443
H         34.45401       78.33742       60.33772
H         34.10041       76.31576       62.38275
H         33.77166       74.76366       60.42361
H         34.39373       76.05614       59.32541
H         32.53451       77.60485       60.20152
H         31.91032       76.25742       61.17359
N         36.99038       76.05902       60.62402
C         38.35690       75.60923       60.75027
H         38.83315       76.10040       61.62610
H         38.39047       74.50749       60.86727
H         38.92803       75.89540       59.84007
H         36.73143       76.56244       59.77408
Ca        30.15349       75.01405       56.86835
O         29.15955       72.09871       56.68269
H         28.19660       71.98259       56.87624
H         29.44710       71.22033       56.32885
O         31.70021       72.13892       57.90796
H         32.56830       72.54473       58.15348
H         31.91190       71.54328       57.14591
O         31.35811       76.92629       55.02483
H         31.22093       77.55087       54.27060
H         30.79744       77.29668       55.75140

Ca 1.0



