%chk=holoCaM-CaMKII.loop4.water1.frame330.chk
%nprocshared=20
%mem=10GB
%nosave
#b3lyp/svp scf=(tight,noincore,xqc) Test 
#IOP(5/87=12) Density=Current Pop=(MK,readradii) iop(6/33=2) iop(6/42=6)

holoCaM-CaMKII.loop4.water1.frame330 

   -3  1 
C         33.50447       40.29808       60.62222
C         33.82174       39.22466       61.61316
O         34.95515       39.13942       62.06461
H         32.71503       40.95617       61.04558
H         34.40381       40.91474       60.41283
H         33.13868       39.84371       59.67963
N         32.83756       38.39041       62.04186
C         33.05808       37.42721       63.10519
C         33.96586       36.28945       62.65865
O         33.78380       35.79007       61.55663
C         31.72366       36.85780       63.61927
C         31.88835       36.32038       65.01013
O         30.94364       35.80309       65.57559
O         33.04347       36.51950       65.67756
H         31.88451       38.51798       61.66629
H         33.51253       38.00494       63.93881
H         31.33253       36.08668       62.91856
H         30.96781       37.66792       63.70654
N         34.92750       35.79231       63.48953
C         35.86908       34.74962       63.10778
C         35.56389       33.45015       63.85877
O         35.36073       32.44734       63.18682
C         37.32480       35.28649       63.28472
C         37.48428       36.59325       62.44910
C         38.35490       34.22520       62.85911
C         38.87608       37.22727       62.47002
H         35.02629       36.18374       64.43318
H         35.75805       34.51058       62.02513
H         37.50352       35.52523       64.35706
H         36.78024       37.35521       62.84553
H         37.21745       36.39681       61.38745
H         38.23514       33.97024       61.78485
H         39.38896       34.58936       63.03061
H         38.24144       33.30394       63.46664
H         39.62040       36.57379       61.97354
H         38.84349       38.18489       61.90628
H         39.20854       37.43769       63.50416
N         35.50696       33.36775       65.22446
C         35.27643       32.08873       65.91347
C         33.80087       31.68381       66.01653
O         33.53691       30.59709       66.51291
C         36.01143       32.03566       67.27327
C         35.48617       32.94526       68.34599
O         36.08769       32.95531       69.55036
O         34.51484       33.65388       68.15549
H         35.68958       34.21510       65.78152
H         35.77841       31.29156       65.32012
H         37.08293       32.27506       67.09919
H         35.95742       30.99749       67.66830
N         32.79164       32.46409       65.53287
C         31.39877       32.03356       65.49721
C         30.75022       31.90466       66.86204
O         30.24381       30.84075       67.18717
H         33.01395       33.37056       65.09715
H         31.32435       31.07487       64.93837
H         30.80999       32.79063       64.93390
N         30.66936       32.99127       67.67580
C         29.90920       33.04171       68.93627
C         28.78121       34.08125       68.87304
O         28.01964       34.15714       69.82666
C         30.84095       33.26800       70.17272
C         31.69610       34.50239       70.09921
O         32.57219       34.72064       70.92010
O         31.58885       35.24934       69.00574
H         31.14034       33.83351       67.32700
H         29.40642       32.06555       69.10492
H         31.53157       32.39967       70.22944
H         30.24007       33.29572       71.10619
N         28.60368       34.90911       67.79732
C         27.51528       35.86702       67.67163
C         27.97665       37.30481       67.79769
O         27.14923       38.18496       67.60319
H         29.25369       34.87555       67.00739
H         26.73667       35.70780       68.44718
H         27.03370       35.71037       66.68148
N         29.24106       37.62749       68.20176
C         29.67193       38.99424       68.47537
C         30.96374       39.34148       67.76825
O         31.59176       38.48088       67.16961
C         29.75101       39.21103       70.01388
C         30.57376       38.20008       70.85101
C         32.07840       38.31545       70.76558
N         32.80789       38.54378       71.88377
O         32.65356       38.15567       69.70324
H         29.90377       36.87395       68.41128
H         28.91326       39.71386       68.09517
H         28.70394       39.09915       70.37252
H         30.06340       40.24873       70.25967
H         30.26913       37.16338       70.60592
H         30.28690       38.36151       71.91222
H         32.35672       38.66067       72.80239
H         33.83525       38.57621       71.84012
N         31.40712       40.62637       67.79538
C         32.67513       41.08025       67.24161
C         33.43604       41.76374       68.36593
O         32.91018       42.70013       68.95378
C         32.41927       42.01160       66.02331
C         33.71352       42.66842       65.51214
C         31.78955       41.20543       64.86998
H         30.80802       41.33631       68.24648
H         33.27918       40.22682       66.87043
H         31.72112       42.82465       66.32136
H         33.49092       43.32168       64.64067
H         34.16690       43.30866       66.29721
H         34.45256       41.90179       65.19950
H         32.48016       40.39810       64.53731
H         30.83203       40.73966       65.18162
H         31.58298       41.86361       63.99938
N         34.68893       41.34861       68.70960
C         35.47064       41.94413       69.79307
C         36.60977       42.75990       69.21868
O         36.62343       42.96225       68.01995
C         35.94546       40.87906       70.81357
C         37.14373       40.04740       70.40817
N         37.09269       39.14522       69.40522
O         38.18544       40.18183       71.03300
H         35.12170       40.61203       68.14009
H         34.83439       42.64781       70.37297
H         35.09911       40.23177       71.10290
H         36.24125       41.42758       71.73406
H         36.22560       38.96551       68.88876
H         37.92879       38.59145       69.16692
N         37.58689       43.28743       70.00495
C         38.67206       44.11624       69.48528
C         39.51075       43.39708       68.43015
O         39.61767       43.91518       67.32712
C         39.55454       44.60127       70.65402
C         40.68209       45.49840       70.20404
C         40.41689       46.69766       69.52013
C         42.01388       45.14279       70.47347
C         41.46722       47.52211       69.10827
C         43.06200       45.97196       70.06633
C         42.79160       47.16489       69.38073
O         43.79325       47.97418       68.98238
H         37.54723       43.11129       71.01970
H         38.21494       45.01288       69.01094
H         39.95905       43.71690       71.19428
H         38.92061       45.16867       71.36978
H         39.39945       46.99628       69.30286
H         42.24279       44.22564       71.00215
H         41.25016       48.44120       68.57875
H         44.08283       45.68593       70.28528
H         44.72211       47.76581       69.15674
N         40.15411       42.22161       68.69630
C         41.02950       41.54959       67.72351
C         40.32419       41.06496       66.44689
O         41.00796       40.56741       65.56325
C         41.83618       40.41597       68.40004
C         40.99631       39.23528       68.90807
C         41.86434       38.25754       69.65012
O         41.63090       38.00447       70.95266
O         42.78825       37.69559       69.08349
H         40.06458       41.83478       69.64651
H         41.78910       42.29654       67.40178
H         42.38531       40.86294       69.25876
H         42.59475       40.03149       67.68198
H         40.49861       38.72000       68.05919
H         40.21789       39.59786       69.60350
N         38.98669       41.23339       66.25082
C         38.27518       40.91218       65.01696
C         37.93106       42.19404       64.26538
O         38.10529       42.22419       63.05545
C         37.00564       40.10696       65.34680
C         37.35566       38.72910       65.92887
C         36.14280       37.93179       66.30652
O         36.27793       36.80312       66.74940
O         34.90764       38.44694       66.17463
H         38.42808       41.65126       66.99884
H         38.89693       40.29652       64.32821
H         36.41234       39.95104       64.41805
H         36.38420       40.68157       66.06725
H         37.99277       38.84588       66.82706
H         37.92236       38.15586       65.17292
N         37.49562       43.30821       64.91824
C         37.19663       44.57183       64.27976
H         36.15809       44.87119       64.53392
H         37.89080       45.34811       64.66933
H         37.29853       44.52526       63.17714
H         37.40451       43.29179       65.93101
Ca        33.25241       36.03935       67.82000
O         35.90738       36.36500       69.70512
H         36.84699       36.29717       69.39979
H         35.75576       35.53614       70.22261

Ca 1.0



