%chk=holoCaM.loop1.water2.frame67.chk
%nprocshared=20
%mem=10GB
%nosave
#b3lyp/svp scf=(tight,noincore,xqc) Test 
#IOP(5/87=12) Density=Current Pop=(MK,readradii) iop(6/33=2) iop(6/42=6)

holoCaM.loop1.water2.frame67 

   0  1 
C         84.34379       37.44273       28.56489
C         84.52313       38.92676       28.64632
O         85.21984       39.37952       29.54485
H         83.69328       37.15844       27.71266
H         85.33817       36.96591       28.42606
H         83.89272       37.07121       29.50793
N         83.96389       39.75559       27.71719
C         84.22289       41.18506       27.73887
C         83.52510       41.83987       28.92924
O         82.30401       41.82247       29.00142
C         83.81077       41.86434       26.41668
C         84.38411       43.25711       26.33576
O         84.16654       43.94859       25.35866
O         85.18132       43.70287       27.33191
H         83.42014       39.34898       26.94044
H         85.33001       41.29455       27.80582
H         82.70173       41.88308       26.32383
H         84.22408       41.28988       25.55952
N         84.26466       42.41030       29.91667
C         83.70091       43.00078       31.12753
C         82.96226       44.30007       30.83500
O         81.79113       44.40843       31.16911
C         84.80655       43.27885       32.17684
C         85.58418       42.00678       32.56195
C         86.59471       42.28395       33.67916
C         87.41354       41.02344       33.99123
N         88.33915       41.25867       35.09791
H         85.28308       42.35860       29.81789
H         83.00443       42.26682       31.59275
H         84.31995       43.68891       33.08990
H         85.52519       44.03820       31.79971
H         86.13627       41.61744       31.68174
H         84.87222       41.22526       32.90589
H         86.04573       42.60986       34.58977
H         87.28836       43.09612       33.36831
H         87.98985       40.72657       33.08588
H         86.73013       40.18773       34.26043
H         88.89828       40.39105       35.26514
H         88.99040       42.04331       34.86583
H         87.80363       41.48773       35.96678
N         83.61409       45.34723       30.25190
C         83.02621       46.67405       30.05557
C         81.79042       46.61494       29.17782
O         80.73242       47.07072       29.58738
C         84.03358       47.62804       29.35875
C         85.34617       47.77022       30.07218
O         86.45715       47.24027       29.52055
O         85.41332       48.35094       31.14310
H         84.59237       45.19600       29.97010
H         82.76300       47.10276       31.04846
H         83.59062       48.63891       29.22267
H         84.24924       47.24610       28.34290
N         81.89798       46.12295       27.91561
C         80.85523       46.17962       26.90659
C         81.32554       47.08252       25.78432
O         80.64050       48.03897       25.45188
H         82.80484       45.72455       27.63674
H         79.89800       46.56856       27.31878
H         80.67571       45.15365       26.52186
N         82.53866       46.85944       25.20532
C         83.15713       47.70415       24.19289
C         83.59355       46.89718       22.96581
O         84.22713       47.46938       22.08966
C         84.33094       48.48916       24.83710
C         85.47126       47.68146       25.39917
O         86.49542       48.31804       25.99734
O         85.48848       46.46709       25.32904
H         83.09331       46.07217       25.54974
H         82.44281       48.48204       23.84409
H         83.91519       49.09517       25.67206
H         84.75126       49.19207       24.08693
N         83.25270       45.58095       22.80543
C         83.59814       44.79535       21.62782
C         85.05150       44.35218       21.54956
O         85.38396       43.68998       20.57697
H         82.64382       45.12361       23.49766
H         83.31351       45.36251       20.71425
H         82.99390       43.86259       21.63993
N         85.96801       44.65157       22.51494
C         87.37062       44.23672       22.46806
C         87.76851       43.46055       23.71813
O         87.33858       43.80679       24.80972
C         88.30190       45.46125       22.30330
C         88.12893       46.14452       20.94012
O         88.13775       46.38501       23.34984
H         85.67068       45.21525       23.31559
H         87.56540       43.58359       21.58864
H         89.35386       45.09869       22.33299
H         87.29606       46.88622       23.19310
H         88.85486       46.98026       20.84956
H         88.32748       45.41879       20.12262
H         87.10091       46.54659       20.82298
N         88.68352       42.44998       23.62239
C         89.22468       41.70659       24.75832
C         90.71790       42.00064       24.88247
O         91.48244       41.67025       23.98642
C         88.90561       40.18359       24.58828
C         87.40711       39.95185       24.93008
C         89.80920       39.28231       25.45194
C         86.93085       38.50513       24.78431
H         89.05491       42.21466       22.68886
H         88.75794       42.04311       25.70795
H         89.11127       39.89318       23.53347
H         86.77970       40.58611       24.26851
H         87.21964       40.26177       25.98338
H         90.87770       39.42566       25.19274
H         89.65717       39.48193       26.52499
H         89.61244       38.21127       25.24955
H         85.85031       38.45064       25.03512
H         87.08060       38.15038       23.74410
H         87.45728       37.82974       25.48980
N         91.19060       42.63033       26.00049
C         92.60411       42.89571       26.26846
C         93.30427       41.60719       26.69022
O         92.65706       40.57608       26.76239
C         92.75878       43.94440       27.41340
C         92.03720       45.25944       27.11642
O         92.27065       43.42161       28.61985
H         90.50808       42.93088       26.70517
H         93.07548       43.32904       25.35871
H         93.84271       44.17848       27.51758
H         92.75345       43.88089       29.35605
H         90.94551       45.09544       27.07524
H         92.23157       45.98555       27.93404
H         92.38565       45.69451       26.15749
N         94.61823       41.60026       27.04790
C         95.27276       40.43146       27.63861
C         94.63437       40.07154       28.97489
O         94.29685       38.91414       29.17671
C         96.78681       40.67023       27.85463
C         97.53030       40.81658       26.52540
O         97.00139       41.80904       28.65010
H         95.16011       42.47033       26.94060
H         95.18153       39.55795       26.95344
H         97.19350       39.76262       28.36447
H         97.83306       41.64997       29.16762
H         97.38441       39.90369       25.90851
H         97.16928       41.69770       25.95669
H         98.61716       40.93615       26.71758
N         94.44063       41.02492       29.93196
C         93.89639       40.74793       31.26212
C         92.56062       40.02783       31.16886
O         92.34895       39.05698       31.88198
C         93.71790       42.05078       32.09244
C         94.98171       42.92419       32.26794
C         96.15816       42.19085       32.93272
C         97.37220       43.10743       33.18409
N         97.96090       43.62039       31.94412
H         94.67941       41.99469       29.68685
H         94.60084       40.09173       31.81630
H         93.34911       41.77039       33.10478
H         92.93939       42.68821       31.61874
H         94.70377       43.79497       32.90227
H         95.29391       43.32369       31.28537
H         96.48327       41.33595       32.30322
H         95.81936       41.79692       33.91551
H         98.14445       42.51499       33.72325
H         97.07823       43.95759       33.83871
H         98.23052       42.82792       31.31807
H         97.29889       44.25917       31.45013
H         98.81996       44.16878       32.17786
N         91.61432       40.45937       30.29564
C         90.29654       39.85182       30.15103
C         90.41197       38.42754       29.62154
O         89.89178       37.52000       30.25475
C         89.39449       40.74226       29.26034
C         89.23158       42.13989       29.89948
C         88.29906       43.04134       29.15143
O         88.49404       43.31437       27.98048
O         87.28103       43.62547       29.80326
H         91.85455       41.26209       29.70136
H         89.79744       39.81909       31.14524
H         88.39365       40.26470       29.16790
H         89.83441       40.85491       28.24822
H         90.20865       42.65509       29.94780
H         88.85491       42.02993       30.93889
N         91.11199       38.15745       28.48459
C         91.28968       36.82828       27.93058
H         92.37071       36.57109       27.92845
H         90.74375       36.05061       28.50360
H         90.92539       36.81132       26.88223
H         91.57045       38.92967       27.99515
Ca        86.13387       45.66408       27.91965
O         88.90489       46.26504       26.04788
H         89.31339       45.54824       25.49986
H         89.56882       46.99934       26.02544
O         89.30880       46.20873       29.18000
H         89.78064       46.88886       28.63743
H         89.08473       46.67796       30.02217

Ca 1.0



