%chk=holoCaM.loop4.water3.frame387.chk
%nprocshared=20
%mem=10GB
%nosave
#b3lyp/svp scf=(tight,noincore,xqc) Test 
#IOP(5/87=12) Density=Current Pop=(MK,readradii) iop(6/33=2) iop(6/42=6)

holoCaM.loop4.water3.frame387 

   -3  1 
C         89.23815       51.50846       98.80439
C         88.88132       51.16420      100.22234
O         87.78474       51.49313      100.64375
H         90.25446       51.14829       98.53937
H         88.51034       51.02323       98.11807
H         89.19550       52.60684       98.65604
N         89.73632       50.44538      101.00070
C         89.39601       49.95909      102.33301
C         90.54940       50.18954      103.31560
O         91.68613       49.85269      103.01119
C         89.06389       48.46627      102.21294
C         88.75101       47.85003      103.54625
O         89.52839       47.01513      103.97837
O         87.66357       48.18521      104.29167
H         90.62636       50.12841      100.58465
H         88.47155       50.44317      102.71679
H         89.94946       47.95385      101.77378
H         88.20496       48.31215      101.52656
N         90.28925       50.69104      104.55529
C         91.27342       50.93337      105.61017
C         91.06662       49.98479      106.79354
O         92.05926       49.60873      107.39850
C         91.16213       52.42447      106.07276
C         91.63505       53.35850      104.92870
C         91.95790       52.70403      107.37031
C         91.37257       54.84335      105.19178
H         89.31118       50.90644      104.77541
H         92.31292       50.75880      105.24707
H         90.09195       52.63155      106.29968
H         91.09547       53.10189      103.99301
H         92.72330       53.20494      104.75175
H         91.58059       52.08145      108.20877
H         93.03959       52.49980      107.22783
H         91.82535       53.74924      107.71154
H         91.72034       55.43603      104.31980
H         90.28430       55.01794      105.32800
H         91.92041       55.21384      106.08065
N         89.82429       49.61152      107.22163
C         89.59382       48.89132      108.48076
C         89.15286       47.44482      108.30206
O         89.01012       46.75550      109.30653
C         88.58999       49.69489      109.33897
C         87.21198       49.85892      108.73819
O         86.91520       49.35297      107.66766
O         86.29055       50.58424      109.39818
H         89.01038       49.88789      106.66390
H         90.54314       48.83069      109.05441
H         89.01300       50.70930      109.50202
H         88.47614       49.20572      110.32967
N         88.94937       46.89816      107.07754
C         88.60049       45.50422      106.85690
C         87.30178       45.13365      107.52799
O         87.28823       44.20506      108.32115
H         89.06827       47.49438      106.25412
H         89.42216       44.85172      107.22739
H         88.49161       45.32396      105.76593
N         86.16752       45.83251      107.24948
C         84.86449       45.52819      107.83857
C         83.82059       45.20636      106.77190
O         82.66113       45.02794      107.12653
C         84.41147       46.67848      108.77012
C         84.19514       48.02845      108.13955
O         84.42641       48.23033      106.96132
O         83.74917       49.04261      108.90330
H         86.23861       46.62147      106.59132
H         84.93157       44.63203      108.49374
H         85.16862       46.79937      109.57512
H         83.45634       46.37540      109.25079
N         84.15367       45.06315      105.45603
C         83.19234       44.73312      104.41634
C         82.30755       45.89225      104.00086
O         81.48336       45.68196      103.12253
H         85.14124       45.11699      105.17287
H         82.57805       43.86366      104.73985
H         83.74661       44.42782      103.50383
N         82.41164       47.13446      104.56024
C         81.56889       48.26022      104.17893
C         82.43915       49.47551      103.73769
O         83.44074       49.04499      102.85117
C         80.64365       48.61243      105.37071
C         79.72830       47.42495      105.73373
C         78.79421       47.70469      106.88545
N         77.93865       46.74128      107.29955
O         78.80150       48.78907      107.45019
H         83.09087       47.29470      105.30530
H         80.92375       47.98221      103.31539
H         79.98780       49.47092      105.12362
H         81.26413       48.89175      106.25075
H         80.34808       46.54670      106.01123
H         79.11326       47.16022      104.84569
H         77.91970       45.82108      106.83498
H         77.29440       46.91231      108.08573
N         81.58688       50.43211      103.01136
C         82.21805       51.70689      102.63304
C         81.97041       52.76689      103.69661
O         80.82489       52.99665      104.06359
C         81.64302       52.16463      101.26205
C         82.24311       53.50834      100.80880
C         81.92535       51.11025      100.17860
H         80.63607       50.58198      103.41429
H         83.31071       51.57160      102.47893
H         80.54061       52.29004      101.34837
H         81.82564       53.80685       99.82370
H         81.98629       54.31235      101.52535
H         83.34888       53.43923      100.72058
H         81.49942       51.43579       99.20550
H         83.02001       50.96103      100.05398
H         81.46094       50.13726      100.44175
N         83.00393       53.52622      104.15064
C         82.84512       54.66619      105.04285
C         82.92132       55.94319      104.21995
O         83.25898       55.88026      103.05151
C         83.94717       54.58461      106.12591
C         83.96024       55.70855      107.12793
N         82.90950       55.91792      107.95176
O         84.94698       56.42474      107.21410
H         83.93595       53.36458      103.75010
H         81.83646       54.64538      105.51099
H         84.93543       54.55896      105.61326
H         83.83021       53.63373      106.68520
H         82.07251       55.32051      107.90285
H         82.93941       56.67770      108.64617
N         82.54950       57.13728      104.74260
C         82.56781       58.39792      103.99523
C         83.96307       58.75298      103.49210
O         84.08028       59.15989      102.34506
C         81.87491       59.53035      104.79844
C         82.28734       59.61323      106.25241
C         81.37604       59.19661      107.24253
C         83.55697       60.06201      106.64162
C         81.73875       59.19715      108.58796
C         83.91833       60.06581      107.99427
C         83.01620       59.62395      108.96909
O         83.38684       59.60671      110.26485
H         82.20117       57.13310      105.71003
H         81.93895       58.28661      103.08098
H         80.79218       59.27277      104.77565
H         81.96754       60.51365      104.28873
H         80.38843       58.84201      106.97224
H         84.26781       60.40279      105.90300
H         81.02951       58.85094      109.32952
H         84.90478       60.40239      108.28495
H         82.79757       59.28246      110.96143
N         85.07093       58.55118      104.25687
C         86.43228       58.79938      103.77650
C         86.73533       57.94356      102.55732
O         87.18976       58.46146      101.54631
C         87.47258       58.46264      104.87597
C         87.36725       59.29467      106.16839
C         87.62624       60.76352      105.96516
O         88.68374       61.34481      106.56277
O         86.86964       61.44544      105.29336
H         84.93888       58.16747      105.20199
H         86.54975       59.86423      103.49132
H         88.49680       58.60170      104.46315
H         87.36685       57.39076      105.15627
H         88.13315       58.90432      106.87318
H         86.37994       59.15573      106.64963
N         86.49618       56.60895      102.60426
C         86.80465       55.66131      101.53655
C         86.11881       56.03414      100.22956
O         86.78987       56.10104       99.20928
C         86.37683       54.24438      101.96927
C         87.15543       53.74957      103.21344
C         86.66286       52.42920      103.73099
O         87.16331       51.94180      104.87967
O         85.78891       51.80941      103.15094
H         86.05578       56.25514      103.46583
H         87.90362       55.63829      101.35887
H         86.54415       53.53782      101.13291
H         85.28975       54.26040      102.18484
H         87.04448       54.46192      104.05237
H         88.23883       53.66879      102.97671
N         84.78604       56.29683      100.18453
C         84.08680       56.61908       98.96137
H         83.02147       56.84400       99.18726
H         84.54237       57.50936       98.47964
H         84.12444       55.75236       98.26882
H         84.24552       56.28643      101.04949
Ca        85.59033       49.02485      103.74523
O         85.79113       49.34755      100.81724
H         85.38496       50.19447      101.12948
H         85.04524       48.69760      100.82406
O         84.23523       51.06481      106.16733
H         83.41974       50.96727      106.72063
H         84.94575       51.30423      106.81413
O         85.73668       46.38189      103.07308
H         85.10975       46.43120      102.30938
H         86.41937       45.71722      102.80987

Ca 1.0



