%chk=holoCaM-CaMKII.loop3.water1.frame417.chk
%nprocshared=20
%mem=10GB
%nosave
#b3lyp/svp scf=(tight,noincore,xqc) Test 
#IOP(5/87=12) Density=Current Pop=(MK,readradii) iop(6/33=2) iop(6/42=6)

holoCaM-CaMKII.loop3.water1.frame417 

   0  1 
C         52.09359       56.03812       39.15560
C         51.25141       55.30608       40.15488
O         51.64376       54.23778       40.60360
H         53.02822       55.47724       38.94211
H         51.52478       56.17137       38.21280
H         52.36465       57.03531       39.56394
N         50.08012       55.85187       40.58147
C         49.26312       55.23021       41.61207
C         48.65345       53.92958       41.10445
O         47.89439       53.95092       40.14554
C         48.18139       56.21567       42.09173
C         47.49037       55.78804       43.35457
O         46.55565       56.59200       43.88089
O         47.78733       54.75545       43.93398
H         49.80449       56.77310       40.20541
H         49.92769       55.04027       42.48034
H         47.43444       56.38469       41.28558
H         48.66614       57.18838       42.32617
N         48.97555       52.75053       41.70301
C         48.50626       51.44171       41.25377
C         46.98625       51.28103       41.36206
O         46.44375       50.41435       40.69169
C         49.21604       50.35000       42.09658
C         49.05505       48.92207       41.54941
C         49.77339       47.87011       42.41440
C         49.09837       47.66312       43.78256
N         49.75968       46.59997       44.53857
H         49.64295       52.78745       42.48115
H         48.81447       51.33968       40.18954
H         48.84299       50.42703       43.13977
H         50.30888       50.56319       42.10758
H         49.50600       48.90199       40.53307
H         47.98839       48.63388       41.46256
H         50.84209       48.15004       42.54774
H         49.73656       46.90297       41.86775
H         48.03345       47.38220       43.62160
H         49.12634       48.59711       44.38180
H         49.73104       45.70278       44.00147
H         50.75229       46.86343       44.73601
H         49.25782       46.46338       45.44591
N         46.25168       52.02101       42.24405
C         44.81535       51.84536       42.46991
C         44.06185       53.14642       42.25122
O         43.13420       53.15056       41.45365
C         44.53280       51.22991       43.86325
C         45.12888       51.94185       45.04466
O         44.42781       52.31292       45.97101
O         46.46469       52.04390       45.12104
H         46.74530       52.71125       42.82067
H         44.39576       51.10137       41.75509
H         44.96572       50.20549       43.87256
H         43.43334       51.12594       43.99790
N         44.41252       54.29217       42.90376
C         43.72118       55.56489       42.72720
C         43.27150       56.19826       44.03568
O         42.65605       57.25316       43.97538
H         45.23363       54.27146       43.51971
H         42.82916       55.44453       42.07477
H         44.41000       56.27547       42.22475
N         43.53170       55.63173       45.25104
C         43.05441       56.18346       46.51983
C         43.60380       57.56395       46.87581
O         43.09199       58.14649       47.82205
C         43.36710       55.21369       47.68377
C         44.85310       55.09849       47.96768
N         45.35050       55.43628       49.17750
O         45.61624       54.69930       47.10193
H         44.02715       54.73543       45.27547
H         41.94852       56.26685       46.42971
H         42.95838       54.20845       47.44631
H         42.84452       55.57379       48.59646
H         44.73658       55.77635       49.93124
H         46.36040       55.35282       49.35721
N         44.65588       58.13115       46.21887
C         45.19083       59.44227       46.55713
C         46.62867       59.41353       47.04264
O         47.14365       60.49275       47.30118
H         45.10247       57.62434       45.44925
H         44.58875       59.93500       47.34924
H         45.13380       60.08262       45.65025
N         47.35771       58.26184       47.17498
C         48.76624       58.28000       47.59249
C         49.48922       56.98225       47.27323
O         48.85270       56.01886       46.86490
C         48.90959       58.68133       49.08755
C         48.32258       57.69977       50.08766
C         48.91895       56.44348       50.31183
C         47.19374       58.05595       50.84833
C         48.39872       55.56785       51.27074
C         46.67134       57.17575       51.80294
C         47.27181       55.93174       52.02007
O         46.76129       55.09921       52.95031
H         46.91860       57.36944       46.91040
H         49.27903       59.04378       46.96586
H         48.42584       59.66975       49.22209
H         49.97938       58.83223       49.34506
H         49.79914       56.14025       49.76558
H         46.71507       59.01637       50.70562
H         48.87589       54.60929       51.43390
H         45.80070       57.46341       52.37899
H         47.15164       54.23328       53.13733
N         50.85142       56.90845       47.39122
C         51.60452       55.70927       47.03196
C         52.41844       55.17769       48.19913
O         52.57224       55.85630       49.20568
C         52.50927       55.96282       45.78520
C         53.68358       56.93324       46.08814
C         51.64713       56.45604       44.60966
C         54.65934       57.09362       44.91961
H         51.37086       57.74202       47.70535
H         50.89322       54.90682       46.75711
H         52.95096       54.98692       45.48997
H         54.27588       56.52757       46.93610
H         53.30178       57.93442       46.37863
H         51.22002       57.45922       44.82376
H         52.23317       56.51401       43.67047
H         50.81363       55.74696       44.43879
H         55.50614       57.74021       45.23309
H         55.06492       56.10466       44.61589
H         54.17320       57.57764       44.04898
N         52.97199       53.93770       48.10631
C         53.84652       53.33665       49.10479
C         55.14034       52.87670       48.44111
O         55.29733       53.05874       47.24327
C         53.11808       52.15107       49.76153
O         52.82091       51.16672       48.81048
H         52.74994       53.37392       47.27533
H         54.09160       54.06674       49.90664
H         52.17487       52.51887       50.22264
H         53.75700       51.71918       50.56324
H         52.49902       50.37700       49.31773
N         56.10601       52.23962       49.15921
C         57.30851       51.66888       48.55421
C         56.94538       50.58637       47.54994
O         57.44424       50.61704       46.43409
C         58.20964       51.06746       49.63634
H         55.96571       52.12752       50.17470
H         57.89626       52.46887       48.04961
H         58.50896       51.85815       50.35671
H         57.68568       50.25770       50.18716
H         59.13107       50.65134       49.17427
N         56.04451       49.61649       47.88130
C         55.61774       48.54447       46.98286
C         55.14666       49.08554       45.64927
O         55.60141       48.61109       44.61767
C         54.47608       47.74677       47.63038
H         55.61141       49.66723       48.81684
H         56.46606       47.84724       46.80575
H         54.15563       46.91879       46.96206
H         54.81112       47.31000       48.59451
H         53.59838       48.40151       47.82527
N         54.25049       50.10561       45.60550
C         53.74058       50.68496       44.36682
C         54.88742       51.18329       43.50684
O         54.99091       50.76404       42.36242
C         52.73907       51.81975       44.67387
C         51.52828       51.27641       45.45776
C         50.48278       52.30669       45.72884
O         50.02751       52.52730       46.97608
O         49.92623       52.85919       44.79902
H         53.94516       50.49840       46.50614
H         53.18839       49.90361       43.79576
H         52.37859       52.25032       43.71277
H         53.24574       52.62353       45.24194
H         51.82623       50.83728       46.42701
H         51.05114       50.47323       44.85527
N         55.81810       52.03575       44.01684
C         56.97846       52.49481       43.28171
H         57.89731       52.14285       43.79798
H         56.99889       52.11442       42.23918
H         56.98449       53.60368       43.25682
H         55.72687       52.34820       44.98978
Ca        47.79584       52.60339       46.83994
O         46.03320       52.24904       49.37806
H         45.70937       51.73648       48.59499
H         46.98352       51.98691       49.47188

Ca 1.0



