%chk=holoCaM.loop2.water0.frame39.chk
%nprocshared=20
%mem=10GB
%nosave
#b3lyp/svp scf=(tight,noincore,xqc) Test 
#IOP(5/87=12) Density=Current Pop=(MK,readradii) iop(6/33=2) iop(6/42=6)

holoCaM.loop2.water0.frame39 

   -2  1 
C         -2.76160       18.01585       20.04775
C         -3.53024       19.25021       19.68248
O         -3.49957       19.66700       18.53372
H         -2.02738       18.25473       20.84517
H         -3.46670       17.24420       20.42594
H         -2.22419       17.60583       19.16739
N         -4.27708       19.87428       20.63012
C         -5.11460       21.03362       20.35537
C         -4.26080       22.23941       19.98323
O         -3.38080       22.59434       20.75557
C         -5.96839       21.34529       21.60166
C         -7.09434       22.30324       21.34997
O         -7.87737       22.65594       22.38013
O         -7.34211       22.72682       20.23223
H         -4.28481       19.46741       21.57940
H         -5.81392       20.76170       19.53573
H         -5.31597       21.73364       22.41379
H         -6.44830       20.41149       21.96390
N         -4.48674       22.93253       18.82922
C         -3.70480       24.09403       18.41464
C         -4.50714       25.39065       18.45114
O         -3.89878       26.43719       18.27372
C         -3.13465       23.85290       17.01434
H         -5.25753       22.63221       18.22740
H         -2.85390       24.24056       19.11458
H         -3.95927       23.73352       16.27847
H         -2.49740       24.70600       16.69777
H         -2.51595       22.93057       17.00890
N         -5.84972       25.41849       18.70521
C         -6.61022       26.65182       18.89781
C         -7.21429       26.72191       20.30770
O         -7.86067       27.71404       20.61411
C         -7.64481       26.83598       17.76584
C         -8.62383       25.71083       17.62008
O         -9.44447       25.39715       18.62911
O         -8.70899       25.10165       16.56659
H         -6.36600       24.53505       18.79608
H         -5.94094       27.53680       18.82541
H         -7.09136       26.94428       16.80684
H         -8.20906       27.77850       17.93448
N         -6.97491       25.75357       21.24501
C         -7.36003       25.85244       22.64601
C         -8.84451       25.80262       22.96304
O         -9.15216       25.89983       24.14331
H         -6.38455       24.94864       21.00450
H         -6.93749       26.79397       23.05919
H         -6.88593       25.01207       23.19920
N         -9.82677       25.67863       22.02045
C        -11.24523       25.74400       22.38807
C        -11.70993       24.55755       23.22743
O        -12.77614       24.63980       23.82069
C        -12.15569       25.91999       21.15518
C        -12.33291       24.66390       20.33164
N        -13.57057       24.16169       20.11494
O        -11.36449       24.09749       19.85264
H         -9.56453       25.61953       21.03183
H        -11.35588       26.67301       22.99175
H        -11.74654       26.73335       20.51799
H        -13.15562       26.25085       21.50999
H        -14.40724       24.61796       20.50564
H        -13.69761       23.31934       19.53979
N        -10.98033       23.40892       23.28243
C        -11.33182       22.24833       24.07811
C        -11.55365       21.00763       23.23933
O        -11.65510       19.94468       23.83596
H        -10.11964       23.34008       22.73086
H        -12.23539       22.41759       24.70280
H        -10.48000       22.05527       24.76561
N        -11.68568       21.04650       21.87555
C        -11.90638       19.84247       21.07468
C        -10.90780       19.74725       19.89741
O         -9.85636       20.67197       19.91819
C        -13.34055       19.82190       20.49766
C        -14.40409       19.92978       21.59702
O        -13.50027       20.87703       19.58689
H        -11.67812       21.95324       21.38902
H        -11.78910       18.93769       21.71131
H        -13.47531       18.85070       19.96544
H        -14.26915       20.64431       19.00318
H        -14.31735       20.89834       22.13484
H        -15.41781       19.87690       21.14612
H        -14.29604       19.09825       22.32429
N        -10.47169       18.37553       19.60357
C         -9.57784       18.20729       18.43253
C        -10.33058       18.25387       17.09033
O        -11.34434       17.58826       16.94123
C         -8.78630       16.88208       18.60985
C         -8.04464       16.83047       19.97846
C         -7.79270       16.65328       17.45529
C         -7.04935       17.97189       20.22581
H        -11.29484       17.73354       19.52915
H         -8.80903       19.00523       18.42054
H         -9.50506       16.03260       18.59951
H         -7.49973       15.86513       20.05538
H         -8.78931       16.84993       20.80313
H         -7.23891       15.70294       17.60723
H         -8.32990       16.56977       16.49026
H         -7.06282       17.48436       17.37904
H         -6.56317       17.83053       21.21337
H         -6.25678       17.99419       19.45190
H         -7.56466       18.95346       20.25307
N         -9.81168       18.97382       16.04365
C        -10.39074       19.05237       14.70040
C         -9.57481       18.18588       13.73441
O         -8.56450       17.62575       14.12420
C        -10.41234       20.52843       14.20029
C        -11.50420       21.41056       14.77136
O        -12.33388       21.88072       14.00917
O        -11.63751       21.67600       16.08357
H         -8.90351       19.43629       16.18061
H        -11.41584       18.62303       14.68540
H        -10.59580       20.52017       13.10535
H         -9.41520       20.99412       14.35732
N        -10.02186       17.98195       12.45543
C         -9.37436       17.07446       11.50397
C         -7.95997       17.50568       11.14396
O         -7.08965       16.64590       11.22187
C        -10.26949       16.83416       10.26458
C         -9.68628       15.82763        9.29035
C         -9.32589       14.53141        9.71061
C         -9.51533       16.17403        7.93788
C         -8.79661       13.61204        8.79959
C         -8.99717       15.24591        7.02828
C         -8.63506       13.96767        7.45925
H        -10.90163       18.43462       12.17026
H         -9.30477       16.08258       12.00011
H        -10.48920       17.78476        9.74403
H        -11.24110       16.43107       10.62348
H         -9.44733       14.22537       10.74073
H         -9.79280       17.15820        7.58235
H         -8.51506       12.62107        9.13269
H         -8.87782       15.51723        5.98735
H         -8.23205       13.25160        6.75437
N         -7.60223       18.77130       10.76475
C         -6.22045       19.19624       10.57972
C         -5.34074       18.83732       11.77207
O         -4.27840       18.26449       11.59076
C         -6.32164       20.72639       10.45980
C         -7.66778       20.89554        9.80224
C         -8.51551       19.88164       10.56717
H         -5.82633       18.75224        9.63711
H         -6.42329       21.19294       11.46634
H         -5.46332       21.20823        9.94486
H         -8.07272       21.93009        9.80213
H         -7.56632       20.54948        8.74785
H         -8.82977       20.26586       11.55902
H         -9.38960       19.63769        9.93805
N         -5.75552       19.15781       13.03257
C         -4.96400       18.92958       14.24262
C         -4.73154       17.45267       14.53400
O         -3.85591       17.14937       15.33323
C         -5.68183       19.54761       15.46043
C         -5.88621       21.06785       15.32343
C         -6.73174       21.64147       16.42200
O         -7.17510       20.94364       17.32039
O         -7.00860       22.95639       16.41006
H         -6.67640       19.60774       13.12107
H         -3.97787       19.42652       14.10542
H         -5.10386       19.35100       16.38965
H         -6.67086       19.05130       15.55296
H         -6.40796       21.31962       14.38052
H         -4.89568       21.57029       15.31494
N         -5.51004       16.48630       13.97601
C         -5.35419       15.06830       14.21929
H         -4.50483       14.84446       14.89654
H         -6.28697       14.67148       14.67308
H         -5.18227       14.55058       13.25189
H         -6.28065       16.76202       13.36679
Ca       -10.30544       21.08899       17.76370

Ca 1.0



