%chk=holoCaM.loop4.water3.frame461.chk
%nprocshared=20
%mem=10GB
%nosave
#b3lyp/svp scf=(tight,noincore,xqc) Test 
#IOP(5/87=12) Density=Current Pop=(MK,readradii) iop(6/33=2) iop(6/42=6)

holoCaM.loop4.water3.frame461 

   -3  1 
C         42.28542       67.22612       62.40972
C         42.06232       66.38056       63.62711
O         41.43861       65.33641       63.51408
H         43.37601       67.32529       62.22602
H         41.81805       66.75868       61.51594
H         41.84357       68.23230       62.56112
N         42.54986       66.77906       64.83664
C         42.41421       65.99008       66.05927
C         42.92946       66.77997       67.25716
O         44.06124       67.24435       67.23498
C         43.17139       64.65146       65.93383
C         43.02604       63.82651       67.17883
O         44.01703       63.47206       67.79604
O         41.80123       63.48338       67.62296
H         43.03590       67.68873       64.88034
H         41.33518       65.76542       66.21815
H         44.24716       64.84231       65.72759
H         42.76083       64.05230       65.09677
N         42.13238       66.94562       68.35043
C         42.47772       67.75522       69.51692
C         42.67605       66.88881       70.76417
O         43.38644       67.32952       71.65685
C         41.33997       68.81103       69.74007
C         41.17288       69.70687       68.48191
C         41.57264       69.67605       70.99648
C         39.92741       70.60034       68.52135
H         41.20930       66.49314       68.34072
H         43.43887       68.28854       69.34168
H         40.39188       68.24801       69.89320
H         41.05986       69.06529       67.58581
H         42.07983       70.33232       68.33516
H         40.73118       70.37645       71.16506
H         41.61444       69.05081       71.91056
H         42.51462       70.25623       70.90472
H         39.01347       69.98035       68.64515
H         39.97646       71.34672       69.33805
H         39.84255       71.15805       67.56484
N         42.01623       65.70564       70.94175
C         42.03780       64.95302       72.20069
C         42.48437       63.49383       72.06145
O         42.57192       62.82868       73.08543
C         40.66730       65.08733       72.91788
C         39.43775       64.70195       72.13954
O         39.50277       64.36907       70.97304
O         38.23115       64.78105       72.73049
H         41.41461       65.36785       70.18491
H         42.77280       65.40479       72.90153
H         40.52955       66.15312       73.19976
H         40.69319       64.49166       73.85509
N         42.83374       62.93233       70.86915
C         43.36167       61.57587       70.74587
C         42.36978       60.52359       71.18845
O         42.67245       59.76118       72.09520
H         42.77338       63.49584       70.01415
H         44.29796       61.49174       71.34160
H         43.61902       61.37889       69.68309
N         41.15140       60.44480       70.58833
C         40.10390       59.49516       70.97739
C         39.52568       58.72551       69.77973
O         38.62676       57.92165       69.98749
C         38.97634       60.25089       71.72038
C         38.22994       61.15881       70.79091
O         38.89907       62.10670       70.11784
O         37.04442       60.97583       70.57198
H         40.95852       61.13704       69.85337
H         40.51448       58.75630       71.70017
H         39.40783       60.83556       72.56132
H         38.26550       59.50989       72.14946
N         39.97305       58.91884       68.50397
C         39.43808       58.22083       67.34265
C         38.06191       58.68056       66.86686
O         37.62652       58.14738       65.85642
H         40.77394       59.54052       68.33531
H         39.44276       57.12584       67.53187
H         40.12503       58.40873       66.48792
N         37.33463       59.66439       67.48146
C         36.05970       60.17414       66.95531
C         36.17891       61.68984       66.64393
O         37.41576       61.95129       66.05314
C         34.92620       59.94071       67.97477
C         34.69051       58.45448       68.26657
C         33.52196       58.27540       69.20337
N         33.55665       58.77135       70.46277
O         32.52985       57.67457       68.81858
H         37.70533       60.09307       68.33429
H         35.80017       59.65774       66.00537
H         33.97498       60.34835       67.57779
H         35.16169       60.48208       68.91451
H         35.59553       57.99309       68.71607
H         34.47038       57.93779       67.30621
H         34.38561       59.27331       70.81209
H         32.75102       58.64906       71.09436
N         35.09040       62.17258       65.77606
C         35.22888       63.58037       65.34002
C         34.25642       64.50041       66.08173
O         33.05315       64.38708       65.89165
C         35.02815       63.62133       63.80006
C         35.02233       65.04568       63.23762
C         36.13741       62.81689       63.09680
H         34.13842       61.97832       66.15756
H         36.25554       63.95776       65.53950
H         34.04520       63.16022       63.55551
H         34.18722       65.63458       63.66796
H         35.98501       65.55209       63.44965
H         34.86746       65.01254       62.13861
H         37.13253       63.26594       63.30648
H         36.14830       61.76145       63.43974
H         35.97958       62.81497       61.99762
N         34.73216       65.44643       66.94522
C         33.89101       66.42875       67.63392
C         33.45894       67.51726       66.65290
O         33.93396       67.53272       65.52970
C         34.68919       66.98160       68.85218
C         33.98761       67.96993       69.76177
N         33.64911       67.62688       71.02665
O         33.76551       69.10680       69.37857
H         35.74369       65.45911       67.13234
H         32.99377       65.90709       68.03536
H         35.64484       67.43807       68.51540
H         34.94486       66.09394       69.46558
H         33.83507       66.68188       71.39145
H         33.19220       68.31325       71.64593
N         32.52085       68.44041       67.00077
C         32.06824       69.51991       66.11658
C         33.07646       70.66974       65.95507
O         32.78348       71.57688       65.18679
C         30.65961       69.98844       66.55187
C         30.56300       70.46903       67.98116
C         29.90202       69.67379       68.93575
C         31.10881       71.69931       68.37669
C         29.80046       70.09434       70.26202
C         30.99509       72.12543       69.70504
C         30.34221       71.32121       70.65235
O         30.22558       71.71631       71.93581
H         32.04965       68.30887       67.90505
H         31.91252       69.09173       65.10074
H         30.00444       69.09597       66.43587
H         30.25643       70.76102       65.86193
H         29.47447       68.71811       68.65698
H         31.60764       72.33491       67.65766
H         29.29716       69.46475       70.98538
H         31.41241       73.08070       69.99627
H         30.57728       72.56144       72.24864
N         34.29520       70.67979       66.57519
C         35.34717       71.66950       66.32342
C         36.51619       71.02572       65.57871
O         37.52533       71.68218       65.37417
C         35.84692       72.27210       67.65916
C         34.79292       73.11740       68.39503
C         34.42427       74.40559       67.69616
O         33.51878       75.22403       68.26363
O         34.95260       74.73979       66.64672
H         34.54628       69.90064       67.19726
H         34.99031       72.48679       65.66348
H         36.73421       72.92151       67.48654
H         36.17003       71.43765       68.32006
H         35.20654       73.39763       69.38747
H         33.88374       72.50696       68.56204
N         36.41403       69.75790       65.08713
C         37.44861       69.06530       64.33990
C         36.96300       68.91599       62.91107
O         37.63559       69.39516       62.00787
C         37.72413       67.69639       65.00161
C         38.20842       67.86037       66.45358
C         38.40455       66.55604       67.17733
O         38.74736       66.57008       68.47805
O         38.22845       65.48634       66.61915
H         35.53830       69.24812       65.20683
H         38.39765       69.64675       64.32761
H         38.48941       67.14224       64.41431
H         36.78665       67.10075       65.01430
H         37.45420       68.43742       67.02822
H         39.16389       68.42110       66.45589
N         35.77052       68.31337       62.63835
C         35.19597       68.21890       61.31279
H         34.21426       68.73958       61.30794
H         35.84008       68.68085       60.53706
H         35.03257       67.15444       61.05249
H         35.21243       67.92458       63.40871
Ca        38.48904       62.49412       67.95459
O         36.73945       64.26298       69.36449
H         36.81598       64.73993       70.22796
H         36.13792       63.49943       69.55115
O         40.71244       61.18220       66.27770
H         40.72810       60.83650       65.35108
H         41.63821       61.05591       66.60475
O         39.62060       63.62634       64.94120
H         39.59610       62.86771       64.30667
H         39.12497       64.34745       64.47849

Ca 1.0



