%chk=holoCaM.loop4.water3.frame125.chk
%nprocshared=20
%mem=10GB
%nosave
#b3lyp/svp scf=(tight,noincore,xqc) Test 
#IOP(5/87=12) Density=Current Pop=(MK,readradii) iop(6/33=2) iop(6/42=6)

holoCaM.loop4.water3.frame125 

   -3  1 
C         93.00512       98.94461       14.04228
C         92.08072       97.82958       13.65561
O         92.50966       96.91492       12.96792
H         94.01829       98.78509       13.61405
H         92.60608       99.91720       13.69221
H         93.09817       98.96362       15.15027
N         90.79554       97.82634       14.11017
C         89.88650       96.70044       13.94900
C         88.59904       97.08559       13.22478
O         87.94294       98.04684       13.59818
C         89.57793       96.14139       15.34342
C         88.69269       94.94026       15.26212
O         89.04791       93.96285       14.62366
O         87.49810       94.94473       15.88210
H         90.47381       98.62570       14.67787
H         90.38289       95.88071       13.38293
H         89.09236       96.92075       15.96886
H         90.52964       95.83801       15.83230
N         88.15702       96.29014       12.21071
C         86.94481       96.47287       11.42512
C         85.96377       95.31261       11.67446
O         84.78709       95.59981       11.84396
C         87.32975       96.59449        9.91437
C         88.32133       97.76438        9.63955
C         86.09228       96.72069        9.00360
C         87.77560       99.16939        9.92798
H         88.72533       95.47770       11.97704
H         86.42214       97.41081       11.71202
H         87.85061       95.65749        9.61733
H         88.62441       97.73361        8.56940
H         89.24357       97.61809       10.24125
H         85.44634       95.82302        9.08986
H         85.48388       97.61059        9.26585
H         86.40590       96.80128        7.93987
H         87.49829       99.28486       10.99450
H         88.55901       99.92204        9.69696
H         86.89674       99.39899        9.29116
N         86.35382       93.99487       11.70559
C         85.40674       92.86962       11.80667
C         85.45779       92.08206       13.12876
O         84.70000       91.13029       13.25902
C         85.57563       91.93253       10.58609
C         86.88623       91.19655       10.51178
O         87.83031       91.35939       11.45017
O         87.09139       90.42552        9.58904
H         87.35451       93.77594       11.62168
H         84.36656       93.25616       11.74649
H         85.45797       92.53163        9.65767
H         84.76763       91.16976       10.60655
N         86.25020       92.45023       14.17421
C         86.20085       91.81791       15.49663
C         86.80907       90.42314       15.61767
O         86.77083       89.87940       16.71225
H         86.82352       93.29059       14.06453
H         85.14478       91.79588       15.84321
H         86.76648       92.45370       16.21016
N         87.41124       89.79241       14.57378
C         88.04306       88.46256       14.65361
C         89.25222       88.35628       15.60200
O         89.74426       87.24856       15.77118
C         88.49966       88.02553       13.24001
C         89.45969       89.01444       12.62546
O         89.79681       90.12638       13.31375
O         89.83707       88.86225       11.47678
H         87.39276       90.27287       13.66715
H         87.27383       87.74216       15.00931
H         87.60203       87.97537       12.58516
H         88.95814       87.01372       13.26833
N         89.80047       89.43372       16.23241
C         90.90318       89.33660       17.18456
C         92.29669       89.52136       16.58916
O         93.23519       89.56471       17.37185
H         89.37411       90.35634       16.09954
H         90.85373       88.37734       17.74717
H         90.75631       90.13464       17.94346
N         92.53055       89.60041       15.24428
C         93.86800       89.72757       14.65344
C         93.92414       90.83897       13.61469
O         93.06303       90.88058       12.74600
C         94.25706       88.42306       13.94163
C         94.38538       87.24506       14.91375
C         94.85879       86.01685       14.18241
N         94.09571       84.90145       14.13526
O         95.94695       86.02890       13.62517
H         91.73935       89.49104       14.60097
H         94.64530       89.90818       15.42974
H         95.24831       88.58061       13.45770
H         93.51276       88.18078       13.15072
H         93.40266       87.05539       15.39580
H         95.12366       87.48799       15.70947
H         93.17531       84.87011       14.59673
H         94.42602       84.06601       13.63023
N         94.97539       91.71475       13.58139
C         95.12802       92.72366       12.52576
C         95.28496       92.02994       11.16912
O         95.86081       90.95361       11.11284
C         96.33299       93.69411       12.75425
C         96.25863       94.88466       11.77242
C         96.38976       94.27174       14.17943
H         95.69663       91.62791       14.30929
H         94.20796       93.34401       12.53664
H         97.28417       93.14266       12.58474
H         95.31799       95.45952       11.93239
H         97.11532       95.57390       11.92472
H         96.29751       94.55597       10.71706
H         95.45532       94.81554       14.42943
H         96.56831       93.48492       14.93705
H         97.24888       94.97287       14.26324
N         94.76516       92.59136       10.04155
C         94.80808       91.98530        8.71420
C         95.35446       92.99345        7.71055
O         95.58603       94.13674        8.06622
C         93.37074       91.54391        8.36069
C         93.20095       90.83843        7.03930
N         93.83826       89.67195        6.78830
O         92.46132       91.31745        6.19231
H         94.30077       93.49867       10.12447
H         95.46374       91.08953        8.72379
H         92.70969       92.43422        8.37957
H         93.03558       90.84021        9.14850
H         94.45808       89.24695        7.49218
H         93.70901       89.19086        5.88613
N         95.60845       92.62061        6.42668
C         96.10524       93.54509        5.41562
C         95.08076       94.62661        5.09872
O         95.42171       95.79840        5.19246
C         96.58295       92.78449        4.15042
C         95.52575       92.00015        3.40844
C         94.75894       92.61524        2.40451
C         95.31439       90.63996        3.69316
C         93.78220       91.88987        1.71696
C         94.33568       89.91731        3.00672
C         93.56473       90.53810        2.01961
O         92.62329       89.82681        1.36798
H         95.48522       91.63496        6.17748
H         97.02513       94.03345        5.81015
H         97.38743       92.08360        4.46549
H         97.07078       93.49281        3.44548
H         94.91432       93.65872        2.15948
H         95.90157       90.13728        4.45149
H         93.19517       92.38016        0.95099
H         94.17717       88.87275        3.24363
H         92.06881       90.21848        0.67837
N         93.81101       94.31399        4.70461
C         92.83545       95.32219        4.29240
C         92.49354       96.28491        5.42240
O         92.11850       97.41414        5.13992
C         91.58093       94.63521        3.70284
C         90.57218       95.61538        3.08623
C         89.47638       94.87178        2.37412
O         89.30437       95.03405        1.17609
O         88.68064       94.02095        3.04989
H         93.54248       93.31968        4.65832
H         93.30694       95.90725        3.47086
H         91.08053       94.01576        4.48040
H         91.92889       93.95805        2.89115
H         91.09718       96.26908        2.35547
H         90.12044       96.25271        3.87504
N         92.60540       95.90944        6.72730
C         92.36390       96.82311        7.84181
C         93.46041       97.87064        7.86117
O         93.16354       99.05660        7.82839
C         92.32534       96.05879        9.18576
C         91.20045       95.00592        9.18637
C         91.18698       94.16475       10.42393
O         92.18806       93.59489       10.79695
O         90.05041       93.88978       11.05850
H         92.88535       94.93996        6.93320
H         91.36762       97.30802        7.72672
H         92.15303       96.77528       10.01957
H         93.30337       95.55824        9.35169
H         91.35492       94.30270        8.34814
H         90.20981       95.48251        9.03690
N         94.76695       97.48627        7.87807
C         95.86682       98.42362        7.86751
H         96.83017       97.86876        7.83429
H         95.80669       99.07335        6.96889
H         95.84543       99.04433        8.78673
H         94.99407       96.48445        7.87236
Ca        90.26652       92.11612       12.41324
O         90.50129       91.21663        9.59974
H         89.72104       90.66462        9.35066
H         91.03822       90.63472       10.19357
O         92.26500       93.80141       14.28802
H         92.67553       94.14336       15.12119
H         92.44223       94.50430       13.61772
O         90.75593       92.38413       16.09028
H         91.51293       92.37201       16.72571
H         89.96291       92.58167       16.64896

Ca 1.0



