%chk=holoCaM-CaMKII.loop3.water2.frame127.chk
%nprocshared=20
%mem=10GB
%nosave
#b3lyp/svp scf=(tight,noincore,xqc) Test 
#IOP(5/87=12) Density=Current Pop=(MK,readradii) iop(6/33=2) iop(6/42=6)

holoCaM-CaMKII.loop3.water2.frame127 

   0  1 
C         22.35374       42.25753       75.36864
C         22.24878       40.93919       76.07505
O         21.46864       40.09771       75.66019
H         23.39165       42.40291       75.00353
H         21.65711       42.30139       74.50433
H         22.09730       43.07688       76.07386
N         23.00044       40.70664       77.18329
C         22.94569       39.48138       77.96585
C         22.30092       39.80408       79.30085
O         22.93849       39.75693       80.34380
C         24.35551       38.85728       78.06492
C         24.37265       37.72184       79.05065
O         25.10389       37.78882       80.02315
O         23.51229       36.69336       78.94052
H         23.62087       41.45971       77.52000
H         22.29374       38.71167       77.49272
H         25.08446       39.62598       78.40178
H         24.66704       38.49516       77.06288
N         20.97636       40.10574       79.31730
C         20.21296       40.31707       80.53955
C         20.20628       39.03680       81.36366
O         20.59453       39.07466       82.52286
C         18.76565       40.74598       80.20291
C         18.73179       42.09426       79.45622
C         17.29628       42.50593       79.10352
C         17.21823       43.87236       78.39631
N         17.89685       43.87819       77.09738
H         20.48409       40.13709       78.41142
H         20.67160       41.14063       81.13275
H         18.19074       40.85391       81.14929
H         18.27448       39.96442       79.58249
H         19.31784       42.01333       78.52082
H         19.19303       42.87768       80.09661
H         16.70554       42.57355       80.04292
H         16.83195       41.73084       78.45512
H         17.65168       44.66207       79.04909
H         16.14404       44.11358       78.23646
H         17.73353       44.80162       76.63490
H         18.92785       43.75760       77.21225
H         17.51294       43.12303       76.48408
N         19.78612       37.85825       80.81276
C         19.70589       36.59492       81.55356
C         21.04483       36.07107       82.08646
O         21.02368       35.10921       82.84253
C         19.01260       35.50505       80.70446
C         19.82239       35.06000       79.51379
O         20.18520       33.76963       79.40445
O         20.13611       35.84752       78.63568
H         19.45901       37.88318       79.83614
H         19.05080       36.78638       82.43258
H         18.02708       35.88217       80.35564
H         18.82108       34.61865       81.34845
N         22.23630       36.65423       81.77470
C         23.49931       36.27393       82.38751
C         24.07883       34.93022       81.98017
O         25.14638       34.62575       82.49519
H         22.25277       37.46542       81.14787
H         23.38343       36.30578       83.49282
H         24.25716       37.03962       82.13638
N         23.47996       34.05900       81.10915
C         24.06653       32.73882       80.85369
C         25.39034       32.78482       80.08525
O         26.07093       31.76865       80.06627
C         23.05756       31.75308       80.22229
C         22.60786       32.06282       78.81883
N         21.71654       31.24743       78.21003
O         23.03492       33.03792       78.22544
H         22.56602       34.29480       80.69925
H         24.28798       32.30451       81.85564
H         22.15818       31.71437       80.87510
H         23.51393       30.73935       80.21255
H         21.34452       30.41934       78.69757
H         21.39435       31.44168       77.25170
N         25.83320       33.91284       79.45199
C         27.16344       34.03542       78.86650
C         27.18459       34.31322       77.37603
O         28.25786       34.63228       76.88405
H         25.23588       34.75022       79.42868
H         27.78969       33.13554       79.04924
H         27.65920       34.88713       79.37940
N         26.08926       34.15834       76.57706
C         26.12097       34.38965       75.13281
C         24.92598       35.26275       74.68470
O         23.71615       34.64473       75.01183
C         26.25891       33.06097       74.34446
C         25.18314       32.01418       74.53907
C         25.02427       31.35633       75.77245
C         24.36571       31.63771       73.45812
C         24.06504       30.35152       75.92208
C         23.40727       30.63079       73.61029
C         23.25356       29.98408       74.84046
O         22.33169       29.00872       74.96908
H         25.22315       33.79810       76.99561
H         27.03203       34.96967       74.86736
H         27.22866       32.58953       74.61347
H         26.33096       33.32417       73.26655
H         25.65363       31.59742       76.61747
H         24.47367       32.11636       72.49263
H         23.96161       29.85202       76.87716
H         22.78792       30.34846       72.76821
H         22.20237       28.52975       75.80022
N         24.98084       35.55093       73.24580
C         23.82362       36.31289       72.73148
C         23.44974       35.78715       71.36393
O         24.21798       35.05290       70.75407
C         24.01494       37.86888       72.73055
C         25.18048       38.33065       71.81084
C         24.17198       38.39526       74.16608
C         25.26946       39.84979       71.64289
H         25.89825       35.95953       72.96424
H         22.93276       36.08656       73.35376
H         23.07779       38.31139       72.32735
H         25.02895       37.90477       70.79615
H         26.15742       37.97484       72.19644
H         24.17617       39.50360       74.19006
H         23.31332       38.06481       74.78771
H         25.11355       38.02743       74.62251
H         25.49610       40.35436       72.60356
H         26.09370       40.09207       70.93844
H         24.32065       40.25020       71.22728
N         22.22671       36.08307       70.85383
C         21.73272       35.60690       69.57279
C         21.33101       36.78707       68.71012
O         21.47426       37.92399       69.14141
C         20.54048       34.66338       69.82523
O         19.50379       35.34316       70.47829
H         21.58667       36.65377       71.42553
H         22.51254       35.02660       69.03221
H         20.89127       33.81853       70.46070
H         20.16533       34.25033       68.86443
H         18.80714       34.66472       70.67642
N         20.79272       36.59646       67.47804
C         20.28543       37.69158       66.66026
C         19.17492       38.42344       67.39754
O         19.22939       39.63873       67.51135
C         19.75401       37.15254       65.32852
H         20.70528       35.63016       67.12378
H         21.11131       38.40031       66.42355
H         19.38579       37.99011       64.69843
H         20.57082       36.63640       64.77972
H         18.92423       36.43217       65.49206
N         18.15271       37.71715       67.95938
C         17.03457       38.31992       68.67907
C         17.48840       39.21034       69.82126
O         17.06364       40.35691       69.87034
C         16.11773       37.21965       69.22986
H         18.17876       36.68915       67.87527
H         16.43532       38.93116       67.96805
H         15.73912       36.58804       68.39839
H         16.66643       36.57022       69.94620
H         15.24644       37.67036       69.75149
N         18.34552       38.75325       70.77729
C         18.76378       39.55917       71.92403
C         19.40210       40.85636       71.45970
O         18.91208       41.91628       71.82368
C         19.74569       38.78655       72.83312
C         19.11927       37.52769       73.45865
C         20.10673       36.80060       74.32698
O         20.42018       35.65065       74.06568
O         20.63571       37.40165       75.40876
H         18.71212       37.79735       70.67268
H         17.86685       39.80910       72.53525
H         20.06189       39.46025       73.65604
H         20.64676       38.51156       72.25109
H         18.77231       36.83469       72.66583
H         18.24191       37.81343       74.07700
N         20.48166       40.84308       70.63057
C         21.11560       42.04016       70.11750
H         22.18568       42.04451       70.41082
H         21.04638       42.04225       69.00900
H         20.64089       42.96880       70.49793
H         20.86626       39.94089       70.32780
Ca        23.38840       35.52490       77.05433
O         21.15721       32.72273       74.76395
H         21.99980       32.67018       75.28023
H         21.44091       32.99194       73.85456
O         18.99057       34.08881       76.38600
H         18.44848       34.16529       75.56115
H         18.42879       33.55833       77.00491

Ca 1.0



