%chk=holoCaM.loop3.water2.frame291.chk
%nprocshared=20
%mem=10GB
%nosave
#b3lyp/svp scf=(tight,noincore,xqc) Test 
#IOP(5/87=12) Density=Current Pop=(MK,readradii) iop(6/33=2) iop(6/42=6)

holoCaM.loop3.water2.frame291 

   0  1 
C         23.94216       63.38251       94.59048
C         24.61749       64.68154       94.90418
O         24.34067       65.23263       95.95745
H         22.84569       63.53839       94.53019
H         24.30401       62.95794       93.63168
H         24.16289       62.65579       95.40238
N         25.55650       65.20263       94.06132
C         26.33840       66.39067       94.37858
C         25.53297       67.67887       94.22478
O         25.62869       68.33306       93.19441
C         27.62336       66.43842       93.51811
C         28.65839       67.33734       94.13434
O         29.77238       67.39582       93.64582
O         28.40492       67.93438       95.31681
H         25.80498       64.66182       93.21890
H         26.68217       66.26957       95.42760
H         27.40269       66.71110       92.46353
H         28.08094       65.42930       93.50886
N         24.71528       68.10813       95.22066
C         23.91209       69.32311       95.13020
C         24.81145       70.54742       95.10934
O         24.72536       71.32071       94.16515
C         22.89170       69.36669       96.29032
C         21.87561       68.21412       96.13282
C         20.89846       68.11640       97.30806
C         19.83755       67.01427       97.10508
N         20.42266       65.67866       96.95004
H         24.66123       67.54960       96.08189
H         23.31345       69.30595       94.18994
H         22.33306       70.32846       96.27015
H         23.42520       69.28932       97.26288
H         22.42022       67.25351       96.06170
H         21.30487       68.36609       95.18976
H         20.36772       69.08597       97.42491
H         21.46800       67.91327       98.24108
H         19.21563       67.24884       96.21274
H         19.16967       67.01312       97.99455
H         19.65262       64.97176       96.92498
H         20.94607       65.60398       96.04867
H         21.05592       65.46070       97.75295
N         25.71464       70.77922       96.10779
C         26.59135       71.95516       96.12830
C         27.53131       72.05953       94.92420
O         28.10519       73.12389       94.73718
C         27.40773       72.04859       97.43790
C         28.36029       70.89873       97.63599
O         29.56428       71.09717       97.66545
O         27.89025       69.65252       97.82705
H         25.73991       70.11176       96.89030
H         25.92366       72.84484       96.09330
H         26.72140       72.09124       98.30995
H         27.98628       72.99905       97.42089
N         27.72804       71.02702       94.05747
C         28.49749       71.15208       92.83121
C         29.95698       71.48937       93.04113
O         30.40611       72.49553       92.51062
H         27.27462       70.12170       94.23321
H         28.02222       71.92644       92.18904
H         28.45200       70.18827       92.27851
N         30.77366       70.64961       93.73701
C         32.22690       70.81037       93.80346
C         32.93488       69.64109       93.10680
O         34.15355       69.57277       93.17619
C         32.70570       71.01835       95.26687
C         32.53415       69.84911       96.19975
N         32.94433       69.92821       97.48574
O         32.03974       68.81681       95.79992
H         30.35289       69.82229       94.18180
H         32.54277       71.73110       93.26613
H         32.17087       71.89387       95.69420
H         33.79098       71.25825       95.24617
H         33.37875       70.78790       97.84933
H         32.83207       69.12095       98.11836
N         32.24638       68.72017       92.36091
C         32.87624       67.61061       91.65770
C         33.18109       66.40069       92.53219
O         33.70707       65.43529       92.00168
H         31.23905       68.85119       92.19730
H         33.78772       67.96990       91.13180
H         32.17204       67.24708       90.87755
N         32.86064       66.36240       93.85853
C         33.10515       65.21754       94.73895
C         31.81268       64.75908       95.40725
O         30.79924       65.42024       95.26964
C         34.10375       65.62846       95.83841
C         35.44958       65.99896       95.28145
C         35.72563       67.32361       94.91347
C         36.44816       65.02293       95.14563
C         36.98190       67.66794       94.40735
C         37.70609       65.36815       94.64563
C         37.97705       66.69332       94.27356
O         39.18741       67.04053       93.79254
H         32.42228       67.18225       94.27330
H         33.51873       64.36103       94.16466
H         34.24808       64.80511       96.56957
H         33.69543       66.48550       96.41703
H         34.96727       68.08578       95.02417
H         36.25297       63.99669       95.43179
H         37.18293       68.69353       94.12439
H         38.46843       64.60558       94.55068
H         39.90412       66.39762       93.69367
N         31.81005       63.64869       96.20845
C         30.65662       63.20968       96.99777
C         31.14050       62.38433       98.19194
O         31.70490       61.31710       98.00559
C         29.57365       62.42490       96.16594
C         30.15673       61.19636       95.41021
C         28.80846       63.34699       95.20487
C         29.11176       60.37513       94.64996
H         32.70396       63.15528       96.34324
H         30.17225       64.10928       97.43712
H         28.81538       62.06057       96.89242
H         30.61899       60.49415       96.12632
H         30.93813       61.52895       94.69336
H         27.92416       62.83308       94.77655
H         28.41686       64.23127       95.75080
H         29.45224       63.66229       94.36083
H         28.65864       60.95877       93.82340
H         29.60231       59.48835       94.19564
H         28.31599       60.02570       95.34165
N         30.96525       62.84025       99.46859
C         31.34195       62.04945      100.64226
C         30.43854       60.83150      100.77045
O         29.51198       60.70080       99.98633
C         31.25054       62.91047      101.91509
O         29.93860       63.36530      102.10655
H         30.55157       63.77344       99.60941
H         32.39985       61.72384      100.53153
H         31.93473       63.78115      101.80201
H         31.57377       62.31286      102.79612
H         29.95397       63.91021      102.93557
N         30.63300       59.89161      101.74142
C         29.72762       58.75242      101.88293
C         28.32115       59.18945      102.28462
O         27.39789       58.40137      102.13391
C         30.27041       57.74018      102.89534
H         31.44348       59.98141      102.37303
H         29.67326       58.24382      100.89397
H         30.35570       58.20258      103.90193
H         29.60062       56.85587      102.95854
H         31.27566       57.39178      102.57464
N         28.08752       60.41591      102.83713
C         26.75649       60.90036      103.18012
C         25.99512       61.25326      101.91853
O         24.89305       60.76051      101.72406
C         26.85889       62.13661      104.08195
H         28.88871       61.02944      103.04357
H         26.21264       60.13112      103.77384
H         25.84281       62.48816      104.36332
H         27.40124       61.86806      105.01417
H         27.40221       62.96545      103.58211
N         26.54731       62.10944      101.00936
C         25.88861       62.52285       99.77283
C         25.53539       61.30570       98.93977
O         24.36321       61.10043       98.65600
C         26.79185       63.48193       98.95940
C         27.06750       64.80450       99.69497
C         27.95541       65.69650       98.88042
O         29.15128       66.07780       99.36447
O         27.59583       66.08924       97.78363
H         27.49306       62.46617      101.20770
H         24.94893       63.06613      100.02214
H         26.28996       63.71749       97.99397
H         27.76013       62.98427       98.74013
H         27.56943       64.61287      100.66534
H         26.11121       65.33332       99.89399
N         26.49886       60.43432       98.54016
C         26.19909       59.23031       97.80035
H         25.72813       59.48655       96.82893
H         27.13596       58.66419       97.60978
H         25.51394       58.58669       98.39300
H         27.47697       60.61795       98.78583
Ca        29.90324       67.93689       96.99654
O         32.16159       66.22635       98.63488
H         31.84323       66.55259       99.51284
H         33.14407       66.16976       98.73919
O         30.28274       68.75881       99.94592
H         30.54342       69.71225       99.89944
H         29.47666       68.74638      100.52063

Ca 1.0



