%chk=holoCaM-CaMKII.loop1.water2.frame425.chk
%nprocshared=20
%mem=10GB
%nosave
#b3lyp/svp scf=(tight,noincore,xqc) Test 
#IOP(5/87=12) Density=Current Pop=(MK,readradii) iop(6/33=2) iop(6/42=6)

holoCaM-CaMKII.loop1.water2.frame425 

   0  1 
C         74.07845       58.51970       34.13912
C         74.82436       57.76684       33.07200
O         74.96217       56.55994       33.18509
H         73.03852       58.14208       34.21531
H         74.59155       58.38218       35.11493
H         74.04307       59.60927       33.92202
N         75.34954       58.42916       32.00643
C         76.15180       57.79998       30.95592
C         77.39974       57.16825       31.55808
O         78.15318       57.84030       32.24759
C         76.49229       58.87002       29.90410
C         77.51307       58.51614       28.85373
O         77.38906       57.50761       27.96072
O         78.48950       59.24235       28.75589
H         75.18545       59.44757       31.95637
H         75.55099       57.01749       30.44091
H         76.88822       59.76337       30.43875
H         75.54930       59.17618       29.39972
N         77.66402       55.85505       31.31026
C         78.78717       55.10022       31.85258
C         79.75650       54.66486       30.75761
O         80.70363       53.95800       31.07828
C         78.26060       53.81569       32.54408
C         77.26054       54.01539       33.69008
C         77.83496       54.85578       34.83499
C         76.90387       54.83802       36.05340
N         77.44372       55.66686       37.13018
H         77.03213       55.35733       30.67812
H         79.36099       55.71025       32.58172
H         79.12430       53.24569       32.95171
H         77.76745       53.17089       31.78254
H         77.00904       53.00196       34.07483
H         76.32314       54.47087       33.31239
H         77.97722       55.90148       34.48797
H         78.81855       54.43835       35.14209
H         76.80152       53.78973       36.41558
H         75.89477       55.21170       35.77120
H         78.40312       55.34195       37.39192
H         77.48136       56.66612       36.82372
H         76.82150       55.59093       37.96681
N         79.59247       55.02675       29.45230
C         80.42423       54.51426       28.36544
C         81.24811       55.61129       27.70331
O         82.21407       55.28157       27.03023
C         79.50396       53.88308       27.30333
C         78.56093       52.86073       27.88033
O         77.25540       53.17269       28.05109
O         78.97807       51.77218       28.24218
H         78.82062       55.65556       29.20204
H         81.13101       53.74642       28.75058
H         80.07868       53.43938       26.46118
H         78.89353       54.70523       26.88370
N         80.86914       56.92170       27.75810
C         81.55849       58.00061       27.07079
C         80.76769       58.50222       25.87271
O         81.15621       59.51199       25.30350
H         80.01182       57.18381       28.25542
H         82.55864       57.68694       26.70175
H         81.71476       58.82182       27.80284
N         79.70292       57.80345       25.37704
C         79.00389       58.16311       24.14180
C         78.01271       59.32086       24.28955
O         77.46037       59.73108       23.27774
C         78.29812       56.92087       23.54552
C         77.37146       56.24064       24.51686
O         76.40727       56.93557       25.13949
O         77.51778       55.05657       24.77328
H         79.46268       56.90883       25.82341
H         79.76163       58.47005       23.38640
H         79.07115       56.18512       23.22926
H         77.73277       57.21800       22.63668
N         77.72530       59.89732       25.48930
C         76.79455       61.00891       25.64065
C         75.37348       60.64484       25.25366
O         74.80906       61.30380       24.39710
H         78.19801       59.55753       26.33313
H         77.15078       61.87130       25.03553
H         76.78213       61.32481       26.70642
N         74.72566       59.64070       25.90568
C         73.33935       59.20314       25.67683
C         72.94682       58.25275       26.80446
O         73.67207       57.30052       27.06376
C         73.09302       58.49418       24.30458
C         72.88321       59.42212       23.10743
O         74.11852       57.59685       23.99292
H         75.25839       59.18227       26.66200
H         72.64688       60.07014       25.74253
H         72.11817       57.95254       24.37233
H         73.98508       56.80634       24.56714
H         72.58861       58.81328       22.22502
H         72.05927       60.13742       23.31792
H         73.79854       59.96190       22.81705
N         71.78991       58.44830       27.50725
C         71.40972       57.62837       28.65246
C         70.31811       56.66437       28.22329
O         69.22228       57.10430       27.90105
C         70.90370       58.51999       29.83170
C         71.86619       59.69255       30.14921
C         70.64885       57.65548       31.08418
C         71.25532       60.70638       31.12478
H         71.14276       59.19398       27.20827
H         72.29429       57.04748       28.99797
H         69.94222       58.97884       29.50731
H         72.07011       60.26204       29.21789
H         72.83336       59.31248       30.54118
H         69.94043       56.83498       30.86089
H         71.60069       57.21184       31.44839
H         70.19296       58.24535       31.90291
H         70.29592       61.09655       30.71780
H         71.07078       60.26354       32.12297
H         71.94782       61.56319       31.25678
N         70.56055       55.32495       28.17150
C         69.53470       54.35647       27.79074
C         68.54040       54.16108       28.92720
O         68.71983       54.71743       29.99834
C         70.16166       52.98162       27.40744
C         71.11753       53.08234       26.21406
O         70.79260       52.37320       28.50436
H         71.51302       54.99807       28.37793
H         69.00512       54.73050       26.88646
H         69.35445       52.29481       27.07845
H         71.69464       52.76868       28.60354
H         70.59110       53.50311       25.33203
H         71.98060       53.72806       26.46815
H         71.49959       52.07214       25.95380
N         67.48641       53.31829       28.76862
C         66.60940       52.90315       29.86290
C         67.41855       52.18527       30.93695
O         67.21813       52.43078       32.11778
C         65.51479       51.93310       29.34010
C         64.54840       52.63443       28.37904
O         66.10771       50.83061       28.69824
H         67.34679       52.89696       27.83900
H         66.09533       53.78126       30.31458
H         64.92551       51.58137       30.21996
H         65.42033       50.11677       28.64600
H         64.05077       53.48311       28.89381
H         65.07420       53.01593       27.47985
H         63.76619       51.91894       28.04814
N         68.34934       51.26566       30.56473
C         69.11224       50.41834       31.47723
C         69.91782       51.26201       32.45012
O         69.79441       51.09043       33.65434
C         70.06884       49.47614       30.68494
C         69.34588       48.63804       29.60605
C         70.28822       47.68337       28.86492
C         69.56156       47.06747       27.65588
N         70.41308       46.11648       26.94541
H         68.51194       51.17549       29.55710
H         68.40418       49.77434       32.04435
H         70.56728       48.79323       31.40787
H         70.85801       50.07406       30.17805
H         68.92197       49.30546       28.83387
H         68.51459       48.05826       30.06112
H         70.63380       46.89151       29.56402
H         71.17335       48.24216       28.48808
H         69.27137       47.88472       26.95549
H         68.63420       46.55169       27.98909
H         71.29770       46.58051       26.63597
H         70.63298       45.30508       27.56676
H         69.90131       45.76893       26.10187
N         70.76618       52.20595       31.96756
C         71.62348       53.05923       32.78366
C         70.79244       53.91200       33.72044
O         71.02712       53.86799       34.92004
C         72.51765       53.92341       31.86411
C         73.45909       53.01008       31.05297
C         74.32751       53.76074       30.10370
O         75.65350       53.58825       30.17004
O         73.84773       54.46166       29.22769
H         70.79055       52.32293       30.94813
H         72.30561       52.42839       33.39783
H         73.13457       54.61720       32.47592
H         71.88205       54.53069       31.18003
H         72.89372       52.27544       30.45324
H         74.10472       52.43637       31.75293
N         69.77570       54.67995       33.24388
C         68.91016       55.48078       34.08570
H         67.86799       55.10638       33.99779
H         69.20432       55.44268       35.15562
H         68.94160       56.53714       33.74844
H         69.58062       54.67283       32.23683
Ca        76.63249       55.36550       27.86460
O         74.51670       52.10338       26.86253
H         74.88946       51.30915       27.32099
H         74.31817       51.78708       25.94575
O         73.71525       54.36165       24.69194
H         72.85800       54.83645       24.54562
H         73.56900       53.46933       24.29243

Ca 1.0



