%chk=holoCaM.loop1.water2.frame148.chk
%nprocshared=20
%mem=10GB
%nosave
#b3lyp/svp scf=(tight,noincore,xqc) Test 
#IOP(5/87=12) Density=Current Pop=(MK,readradii) iop(6/33=2) iop(6/42=6)

holoCaM.loop1.water2.frame148 

   0  1 
C         -8.18541       65.31456       25.17090
C         -7.65381       63.97051       25.55354
O         -8.43909       63.09357       25.88770
H         -9.29320       65.33307       25.25658
H         -7.75583       66.09043       25.83637
H         -7.90690       65.53082       24.11801
N         -6.31500       63.72288       25.49883
C         -5.77313       62.40575       25.78506
C         -6.01054       62.04271       27.25374
O         -5.45921       62.68163       28.13888
C         -4.27515       62.33784       25.42304
C         -3.75309       60.93214       25.45463
O         -4.59323       59.89825       25.64182
O         -2.56623       60.72489       25.28479
H         -5.68281       64.47661       25.18666
H         -6.30298       61.69602       25.10889
H         -3.69876       62.97213       26.13161
H         -4.10996       62.72368       24.39353
N         -6.87453       61.04025       27.56345
C         -7.26110       60.64219       28.91457
C         -6.10589       60.09376       29.74478
O         -5.89496       60.59663       30.83961
C         -8.40579       59.59920       28.82430
C         -8.93860       59.08292       30.17279
C         -9.45740       60.19661       31.09240
C        -10.01332       59.61077       32.39562
N        -10.43253       60.67376       33.30793
H         -7.35091       60.58757       26.77600
H         -7.67426       61.53874       29.42480
H         -8.05929       58.71433       28.24996
H         -9.25080       60.05785       28.26376
H         -8.13517       58.52017       30.69532
H         -9.76751       58.37265       29.95719
H        -10.25394       60.77524       30.57526
H         -8.62375       60.88138       31.35087
H         -9.22732       58.99878       32.89191
H        -10.88062       58.95172       32.16744
H         -9.61392       61.27849       33.55087
H        -11.18186       61.25484       32.86715
H        -10.80433       60.24422       34.18552
N         -5.34010       59.05031       29.31301
C         -4.31591       58.40716       30.14628
C         -2.90353       58.85402       29.80082
O         -1.98132       58.41320       30.47401
C         -4.48643       56.86579       30.12566
C         -4.45184       56.31090       28.73086
O         -3.38067       56.51700       27.94675
O         -5.45324       55.79643       28.25886
H         -5.48930       58.70517       28.35370
H         -4.43852       58.72033       31.20631
H         -5.47259       56.62207       30.57850
H         -3.70041       56.37806       30.74138
N         -2.65257       59.78506       28.83839
C         -1.33391       60.35280       28.62544
C         -0.32218       59.33676       28.16922
O          0.69839       59.18145       28.82546
H         -3.42527       60.17173       28.27914
H         -0.98929       60.83955       29.56503
H         -1.39915       61.14150       27.84512
N         -0.51778       58.65303       27.00980
C          0.48666       57.77959       26.41425
C          1.00870       58.36203       25.10015
O          1.90382       57.76608       24.51833
C         -0.06092       56.33999       26.27175
C         -1.22333       56.15824       25.33137
O         -1.77078       54.93630       25.19452
O         -1.67382       57.08810       24.68623
H         -1.39881       58.80747       26.50176
H          1.37078       57.70878       27.08500
H         -0.37751       55.99336       27.27956
H          0.75712       55.67395       25.92342
N          0.51924       59.53492       24.58865
C          1.02615       60.18668       23.39462
C          0.01682       60.22404       22.26455
O          0.33757       60.82295       21.24684
H         -0.23720       60.03319       25.06737
H          1.93321       59.67532       23.00685
H          1.31764       61.22323       23.66928
N         -1.16605       59.53755       22.31243
C         -2.00976       59.34368       21.13351
C         -3.50517       59.43181       21.44521
O         -3.89306       59.58721       22.59480
C         -1.65628       57.97621       20.48270
C         -0.24278       57.95311       19.88180
O         -1.81112       56.92201       21.39700
H         -1.38484       58.98219       23.14857
H         -1.80873       60.14032       20.38314
H         -2.33870       57.78670       19.62950
H         -1.04665       56.93955       22.03096
H          0.53368       58.09909       20.66084
H         -0.06242       56.97067       19.39728
H         -0.14266       58.75011       19.11514
N         -4.39985       59.36105       20.41385
C         -5.85393       59.46368       20.52544
C         -6.49606       58.19687       19.96001
O         -6.16912       57.79530       18.85134
C         -6.33362       60.73426       19.75802
C         -5.76680       62.04234       20.38154
C         -7.86946       60.81764       19.64066
C         -6.26107       62.36177       21.80222
H         -4.02433       59.26143       19.45818
H         -6.17324       59.57018       21.58006
H         -5.94330       60.66861       18.71757
H         -6.04789       62.89672       19.72808
H         -4.65727       61.99330       20.39830
H         -8.15967       61.72734       19.07297
H         -8.27131       59.94492       19.08591
H         -8.35592       60.84661       20.63377
H         -5.97394       61.57351       22.52551
H         -5.80405       63.31374       22.14496
H         -7.36210       62.49606       21.82627
N         -7.47641       57.56013       20.66336
C         -8.19356       56.36394       20.22423
C         -9.65343       56.71670       19.96640
O        -10.00160       57.88691       20.01390
C         -8.10194       55.25350       21.31339
C         -6.66610       54.89046       21.68301
O         -8.83245       55.60424       22.46119
H         -7.77612       57.97567       21.55162
H         -7.75881       55.96037       19.28354
H         -8.55009       54.31905       20.91936
H         -8.31667       56.28714       22.95735
H         -6.17945       55.77323       22.13631
H         -6.66843       54.06594       22.42801
H         -6.10011       54.56383       20.78608
N        -10.57491       55.74425       19.71992
C        -12.00695       56.00237       19.58672
C        -12.57306       56.66353       20.84011
O        -13.21986       57.69255       20.70451
C        -12.78328       54.69609       19.27912
C        -12.41539       54.15567       17.88616
O        -12.52308       53.73610       20.27469
H        -10.25044       54.76952       19.65979
H        -12.18050       56.69426       18.73057
H        -13.87188       54.93356       19.27011
H        -12.93307       52.87920       19.98839
H        -13.02382       53.25544       17.65675
H        -12.63391       54.92072       17.11074
H        -11.34300       53.87945       17.82787
N        -12.38751       56.13489       22.08856
C        -12.99241       56.72423       23.28758
C        -12.50232       58.14004       23.60110
O        -13.05686       58.74448       24.50921
C        -12.77895       55.81625       24.52864
C        -11.32694       55.82749       25.04046
C        -11.12695       54.91962       26.25820
C         -9.73262       55.08587       26.89401
N         -8.64423       54.74291       25.97871
H        -11.84410       55.26420       22.17812
H        -14.08862       56.76722       23.09947
H        -13.09817       54.78041       24.28108
H        -13.42996       56.18129       25.35420
H        -11.07739       56.86057       25.35524
H        -10.64740       55.51077       24.22754
H        -11.29330       53.86019       25.96620
H        -11.87348       55.19055       27.03632
H         -9.67636       54.42322       27.78521
H         -9.60145       56.13558       27.24223
H         -8.59840       55.42537       25.19042
H         -7.74161       54.79846       26.50227
H         -8.76622       53.77190       25.61109
N        -11.46024       58.71893       22.93090
C        -10.92825       60.04187       23.24951
C        -11.20466       61.03130       22.12117
O        -11.06656       62.22502       22.34943
C         -9.40233       59.94645       23.52264
C         -9.05661       58.83560       24.53578
C         -7.57959       58.58990       24.70307
O         -6.86831       58.38364       23.73631
O         -7.05373       58.45503       25.93040
H        -10.98941       58.19323       22.18901
H        -11.43706       60.43442       24.15675
H         -9.00394       60.92893       23.85800
H         -8.91017       59.68653       22.56397
H         -9.46495       57.88731       24.14744
H         -9.52520       59.04652       25.52110
N        -11.59183       60.61998       20.87754
C        -11.90041       61.53807       19.80483
H        -12.79584       62.13699       20.07195
H        -11.03785       62.20724       19.60607
H        -12.12513       60.96641       18.87705
H        -11.66201       59.62277       20.65604
Ca        -3.91995       57.85358       26.24044
O         -5.64979       54.89440       24.94071
H         -5.12692       55.19668       25.72386
H         -5.38430       53.94887       24.81645
O         -3.81185       55.91203       22.96744
H         -3.96148       55.94105       21.98948
H         -3.57022       54.96928       23.14471

Ca 1.0



