%chk=holoCaM.loop1.water2.frame132.chk
%nprocshared=20
%mem=10GB
%nosave
#b3lyp/svp scf=(tight,noincore,xqc) Test 
#IOP(5/87=12) Density=Current Pop=(MK,readradii) iop(6/33=2) iop(6/42=6)

holoCaM.loop1.water2.frame132 

   0  1 
C         -2.59153       84.54700        3.64596
C         -2.26901       83.08813        3.68918
O         -3.05181       82.31048        3.16913
H         -3.56867       84.70292        4.15230
H         -1.82311       85.15045        4.17008
H         -2.67299       84.88175        2.59152
N         -1.13598       82.62699        4.28946
C         -0.89137       81.20010        4.45077
C         -1.86641       80.68011        5.50673
O         -1.68505       80.95907        6.68422
C          0.56894       80.96332        4.87118
C          0.93688       79.54144        5.16512
O          0.13704       78.49763        4.90786
O          1.90821       79.35278        5.86985
H         -0.45326       83.30627        4.66155
H         -1.04095       80.70105        3.46713
H          0.73558       81.52494        5.81615
H          1.27346       81.36787        4.11190
N         -2.97034       79.98177        5.13241
C         -4.04062       79.59007        6.04225
C         -3.85512       78.19262        6.61068
O         -4.65653       77.80735        7.45115
C         -5.39491       79.62655        5.29266
C         -5.79235       81.00538        4.74779
C         -5.92772       82.05950        5.85278
C         -6.54280       83.34492        5.29376
N         -6.65192       84.36972        6.33022
H         -3.13832       79.89016        4.13174
H         -4.07361       80.28966        6.90267
H         -6.20809       79.28682        5.96860
H         -5.35300       78.91768        4.43303
H         -6.76995       80.88376        4.23404
H         -5.06927       81.35350        3.98925
H         -4.93004       82.28407        6.28856
H         -6.59275       81.66812        6.65338
H         -7.55761       83.10843        4.90319
H         -5.92313       83.73330        4.45564
H         -7.18140       85.18461        5.94509
H         -7.16476       83.99620        7.16198
H         -5.69772       84.68830        6.61651
N         -2.87426       77.35600        6.17407
C         -2.73647       75.97699        6.63514
C         -1.35429       75.66738        7.19220
O         -1.04042       74.49990        7.37670
C         -3.31024       74.98629        5.58842
C         -2.88627       75.13111        4.15326
O         -1.99398       76.05067        3.76468
O         -3.43345       74.44337        3.30850
H         -2.23507       77.68529        5.44184
H         -3.38580       75.79095        7.51784
H         -4.40977       75.15552        5.58102
H         -3.13856       73.93902        5.91783
N         -0.54903       76.66912        7.65095
C          0.63814       76.45480        8.46680
C          1.63304       75.51368        7.84544
O          2.07893       74.58363        8.50269
H         -0.82205       77.65116        7.49719
H          0.34327       76.07272        9.46731
H          1.13310       77.44057        8.61901
N          2.03635       75.72563        6.57332
C          3.06649       74.95734        5.89057
C          4.26763       75.85378        5.59522
O          5.38915       75.37260        5.68145
C          2.49466       74.23503        4.64588
C          1.63370       75.06802        3.73674
O          1.92722       76.34551        3.49371
O          0.62007       74.59462        3.25065
H          1.58311       76.49861        6.07061
H          3.45993       74.14437        6.54414
H          1.84830       73.40066        4.99570
H          3.32168       73.77767        4.06245
N          4.11351       77.17912        5.30831
C          5.20522       78.12031        5.13145
C          5.27064       78.68264        3.72418
O          6.22816       79.38451        3.43587
H          3.17455       77.56024        5.22440
H          6.17473       77.64794        5.38724
H          5.05884       78.97327        5.83353
N          4.30895       78.41962        2.79110
C          4.28666       78.98314        1.44754
C          2.88484       79.51314        1.09748
O          1.92495       79.26546        1.81542
C          4.77180       77.92381        0.41071
C          6.25310       77.56214        0.61407
O          3.98843       76.76338        0.50874
H          3.53322       77.81509        3.03988
H          4.97268       79.85439        1.40355
H          4.67064       78.35008       -0.61152
H          4.38458       76.06571       -0.07811
H          6.41683       77.10144        1.61027
H          6.57051       76.82771       -0.15911
H          6.89095       78.46335        0.50650
N          2.72257       80.25841       -0.03214
C          1.45738       80.77685       -0.55475
C          1.18782       80.06793       -1.89074
O          2.05114       80.03529       -2.75508
C          1.51856       82.34791       -0.66411
C          1.21694       83.01024        0.71821
C          0.53581       82.89676       -1.71914
C          1.64136       84.48411        0.81352
H          3.56541       80.45765       -0.59084
H          0.60631       80.54385        0.11761
H          2.54075       82.62692       -0.99746
H          1.76517       82.47720        1.52050
H          0.12650       82.93232        0.94651
H          0.79788       82.51377       -2.72733
H         -0.49787       82.59275       -1.48599
H          0.56508       84.00145       -1.78275
H          1.10877       85.13710        0.09258
H          1.42644       84.86822        1.83533
H          2.73519       84.57084        0.64218
N         -0.04194       79.52332       -2.11942
C         -0.50334       78.87588       -3.34649
C         -1.29242       79.85458       -4.17936
O         -1.43550       80.99854       -3.79310
C         -1.40773       77.64953       -3.00062
C         -0.56700       76.46056       -2.55269
O         -2.39763       77.99348       -2.05841
H         -0.74974       79.68244       -1.40873
H          0.35135       78.56511       -3.98346
H         -1.95247       77.27062       -3.88760
H         -2.05695       77.78666       -1.15111
H          0.09790       76.77572       -1.73583
H         -1.22169       75.62463       -2.22872
H          0.04939       76.10891       -3.40521
N         -1.82126       79.45629       -5.36745
C         -2.62046       80.30715       -6.24157
C         -3.82365       80.86377       -5.49718
O         -3.97462       82.07718       -5.45647
C         -3.00141       79.49184       -7.50708
C         -3.94548       80.22117       -8.46466
O         -1.81147       79.18657       -8.19300
H         -1.64503       78.48524       -5.66664
H         -2.00412       81.17244       -6.57502
H         -3.51439       78.55216       -7.18685
H         -1.90973       78.27596       -8.57432
H         -4.07498       79.60878       -9.38429
H         -4.94610       80.34819       -8.00006
H         -3.53687       81.21178       -8.75068
N         -4.71356       80.04648       -4.87369
C         -5.88605       80.56400       -4.16956
C         -5.54590       81.44834       -2.96205
O         -6.40544       82.21466       -2.54761
C         -6.76611       79.41445       -3.67583
C         -7.43749       78.60102       -4.80073
C         -8.24553       77.42867       -4.21613
C         -9.39516       77.87774       -3.28905
N         -9.98819       76.73597       -2.60222
H         -4.55734       79.02798       -4.92523
H         -6.47750       81.18098       -4.88301
H         -7.55549       79.87602       -3.05884
H         -6.15125       78.73977       -3.03659
H         -6.66485       78.17581       -5.47866
H         -8.09781       79.25952       -5.40672
H         -7.54208       76.77852       -3.65310
H         -8.67490       76.82673       -5.04828
H        -10.16245       78.41672       -3.88828
H         -9.04404       78.56117       -2.49451
H        -10.78942       77.07263       -2.02060
H        -10.32244       76.02275       -3.28728
H         -9.27302       76.31356       -1.96428
N         -4.36543       81.33668       -2.29339
C         -4.00826       82.15569       -1.12952
C         -3.51093       83.52398       -1.57293
O         -3.77177       84.50358       -0.88893
C         -2.93429       81.44095       -0.28417
C         -3.47698       80.13258        0.32205
C         -2.47197       79.37515        1.14218
O         -2.88693       78.73187        2.23975
O         -1.34081       79.17569        0.74322
H         -3.69669       80.62248       -2.61132
H         -4.88222       82.29028       -0.45175
H         -2.57655       82.10027        0.53424
H         -2.08762       81.22171       -0.94529
H         -3.82954       79.46420       -0.48668
H         -4.34745       80.35383        0.97752
N         -2.82718       83.66217       -2.74256
C         -2.35529       84.91510       -3.28510
H         -1.27647       84.82828       -3.53921
H         -2.91704       85.11732       -4.22085
H         -2.49563       85.76224       -2.58461
H         -2.66626       82.83871       -3.32063
Ca        -0.52629       77.54866        3.00588
O         -1.92783       75.93194        0.83354
H         -2.05302       75.61165       -0.09070
H         -2.15781       75.14182        1.37573
O          0.87844       76.23709        0.44540
H          1.72081       76.42981        0.91530
H          1.09329       75.47051       -0.14330

Ca 1.0



