%chk=holoCaM-CaMKII.loop2.water2.frame444.chk
%nprocshared=20
%mem=10GB
%nosave
#b3lyp/svp scf=(tight,noincore,xqc) Test 
#IOP(5/87=12) Density=Current Pop=(MK,readradii) iop(6/33=2) iop(6/42=6)

holoCaM-CaMKII.loop2.water2.frame444 

   -2  1 
C         59.87506       65.59433       -0.89689
C         60.59604       65.27937       -2.17849
O         60.77171       66.15860       -3.00727
H         58.97219       64.95639       -0.80095
H         60.54969       65.38824       -0.03650
H         59.57447       66.66243       -0.85385
N         61.08364       64.02683       -2.37719
C         61.91291       63.64009       -3.51546
C         61.13702       63.61853       -4.83242
O         60.11564       62.94841       -4.89485
C         62.48571       62.22778       -3.25531
C         63.59113       61.84398       -4.19742
O         64.03917       62.64573       -4.99751
O         64.13618       60.61690       -4.11615
H         60.92205       63.33538       -1.62731
H         62.77316       64.34056       -3.56204
H         61.66372       61.48205       -3.31487
H         62.91873       62.18127       -2.23424
N         61.60638       64.26378       -5.94475
C         60.96092       64.19137       -7.25788
C         61.85074       63.57059       -8.34449
O         61.36335       63.41784       -9.45615
C         60.55111       65.60344       -7.69002
H         62.46822       64.81602       -5.86407
H         60.04264       63.56884       -7.19893
H         60.02188       65.57607       -8.66711
H         59.86911       66.05139       -6.93741
H         61.44829       66.25304       -7.79150
N         63.15608       63.22861       -8.12812
C         64.05911       62.73687       -9.17088
C         64.71140       61.39161       -8.80849
O         64.61046       60.48882       -9.62790
C         65.06886       63.84337       -9.56216
C         65.66597       64.56226       -8.39836
O         65.47900       65.76099       -8.25531
O         66.35525       63.89602       -7.47363
H         63.56685       63.39890       -7.20626
H         63.50833       62.55176      -10.12065
H         64.51813       64.61208      -10.15024
H         65.86346       63.42813      -10.21823
N         65.38563       61.16252       -7.63741
C         66.02343       59.88708       -7.30472
C         67.52790       59.98523       -7.05376
O         68.12770       58.95843       -6.76951
H         65.42197       61.89323       -6.92257
H         65.87772       59.14433       -8.11774
H         65.53841       59.48136       -6.39165
N         68.21384       61.15926       -7.17059
C         69.67045       61.29437       -7.04673
C         70.24007       61.07512       -5.62726
O         71.44443       61.22150       -5.47019
C         70.10659       62.67172       -7.62563
C         69.65630       63.86536       -6.82951
N         69.91222       65.11926       -7.26374
O         69.05974       63.70673       -5.78342
H         67.68960       61.98727       -7.46094
H         70.13541       60.54294       -7.72148
H         69.68913       62.76335       -8.65326
H         71.21306       62.71423       -7.70423
H         70.40428       65.28170       -8.15334
H         69.61074       65.93119       -6.70714
N         69.46917       60.69617       -4.56256
C         70.00020       60.39866       -3.23255
C         70.23153       61.60588       -2.32744
O         70.60636       61.39342       -1.18337
H         68.47654       60.49128       -4.71175
H         70.92235       59.78209       -3.32261
H         69.24914       59.77398       -2.70321
N         70.03109       62.88541       -2.74887
C         70.22137       64.08058       -1.92499
C         69.01239       65.00455       -1.99601
O         68.52044       65.25544       -3.08637
C         71.44244       64.88819       -2.43099
C         72.75796       64.15844       -2.16939
O         71.33674       65.16062       -3.80685
H         69.76600       63.03084       -3.72157
H         70.42428       63.82509       -0.86048
H         71.51152       65.84287       -1.85386
H         70.79274       65.98477       -3.90491
H         72.79090       63.19090       -2.71067
H         73.60495       64.79182       -2.50990
H         72.88057       63.97428       -1.07994
N         68.58391       65.67532       -0.88528
C         67.64194       66.79680       -0.95791
C         68.22218       67.91126       -1.82578
O         69.41663       68.17291       -1.78479
C         67.23307       67.30042        0.47000
C         66.21688       66.28468        1.06374
C         66.62599       68.72218        0.44627
C         65.71370       66.61121        2.47019
H         69.01462       65.44982        0.02477
H         66.70982       66.45951       -1.46027
H         68.14199       67.36790        1.10864
H         66.68173       65.27632        1.09144
H         65.32437       66.23526        0.39934
H         66.38941       69.07694        1.46848
H         67.36495       69.45392        0.05707
H         65.70979       68.76017       -0.17512
H         65.15437       67.56902        2.49096
H         65.00340       65.81979        2.79143
H         66.55891       66.65187        3.18633
N         67.37497       68.63013       -2.61550
C         67.75874       69.69469       -3.53293
C         67.15508       71.00260       -3.07830
O         66.49427       71.03868       -2.04717
C         67.18205       69.40188       -4.93314
C         67.46440       68.02970       -5.40612
O         66.99190       67.00253       -4.68810
O         68.00613       67.83679       -6.48200
H         66.37620       68.40151       -2.57400
H         68.86547       69.78759       -3.58834
H         67.55306       70.13443       -5.68009
H         66.07245       69.47665       -4.89060
N         67.31461       72.12787       -3.82559
C         66.68816       73.38482       -3.46939
C         65.15517       73.29918       -3.50950
O         64.56071       73.63647       -2.49808
C         67.20889       74.54228       -4.34152
C         66.75928       75.85525       -3.75323
C         67.22987       76.24662       -2.48516
C         65.86145       76.68580       -4.43970
C         66.80111       77.44172       -1.91006
C         65.43223       77.88336       -3.85757
C         65.90018       78.25940       -2.59400
H         67.91293       72.09251       -4.66579
H         67.00856       73.60655       -2.42793
H         66.86664       74.42187       -5.38614
H         68.32061       74.53956       -4.36068
H         67.92861       75.62468       -1.93844
H         65.48371       76.40045       -5.41361
H         67.16654       77.72883       -0.93240
H         64.73236       78.51818       -4.38346
H         65.56544       79.18355       -2.14294
N         64.42503       72.86829       -4.59696
C         62.96476       72.81250       -4.60844
C         62.38382       71.69192       -3.75132
O         61.16522       71.57624       -3.73005
C         62.62564       72.62883       -6.09220
C         63.77613       71.77461       -6.56792
C         64.96184       72.44864       -5.87850
H         62.51965       73.77431       -4.27053
H         61.60602       72.24064       -6.30749
H         62.73102       73.61504       -6.60020
H         63.63786       70.75836       -6.13391
H         63.87640       71.67762       -7.66994
H         65.78037       71.71298       -5.80608
H         65.28145       73.34573       -6.44723
N         63.15943       70.85884       -2.99647
C         62.60874       69.83196       -2.11629
C         62.84194       70.18491       -0.65038
O         62.32677       69.48034        0.20627
C         63.27001       68.47492       -2.40919
C         63.24031       68.08431       -3.89418
C         64.02514       66.83162       -4.16303
O         64.15422       66.44252       -5.31092
O         64.62638       66.15403       -3.16530
H         64.18094       70.95770       -3.01976
H         61.51086       69.74580       -2.26885
H         62.80079       67.67772       -1.79124
H         64.32402       68.56079       -2.09985
H         63.70925       68.88874       -4.49612
H         62.19311       67.95274       -4.23578
N         63.61606       71.24626       -0.27828
C         63.84276       71.60387        1.10224
H         64.53284       72.47482        1.15259
H         62.88156       71.88627        1.57900
H         64.30515       70.75478        1.64677
H         64.08311       71.82555       -0.98106
Ca        66.88477       65.09800       -5.72404
O         66.86893       62.32384       -3.91267
H         66.93255       61.69951       -3.14642
H         66.55060       61.76160       -4.66232
O         65.35173       63.52484       -1.79008
H         65.42240       64.38171       -1.30262
H         65.03694       62.87871       -1.10996

Ca 1.0



