%chk=holoCaM-CaMKII.loop2.water2.frame306.chk
%nprocshared=20
%mem=10GB
%nosave
#b3lyp/svp scf=(tight,noincore,xqc) Test 
#IOP(5/87=12) Density=Current Pop=(MK,readradii) iop(6/33=2) iop(6/42=6)

holoCaM-CaMKII.loop2.water2.frame306 

   -2  1 
C         55.29738       36.03182       48.06172
C         56.29577       36.57201       49.04408
O         55.93043       37.33056       49.92932
H         54.27899       36.42245       48.26683
H         55.59533       36.30335       47.02792
H         55.27162       34.92284       48.14612
N         57.59098       36.17476       48.95808
C         58.61101       36.52140       49.93844
C         58.93086       38.01512       49.95754
O         59.27757       38.55224       48.91440
C         59.90414       35.74028       49.61433
C         60.89346       35.79367       50.73541
O         60.54542       36.33148       51.91626
O         61.99414       35.28455       50.60372
H         57.83952       35.52563       48.19425
H         58.24537       36.18122       50.93304
H         60.35689       36.14598       48.68291
H         59.67429       34.66587       49.45135
N         58.90307       38.72725       51.12629
C         59.29921       40.13395       51.22341
C         60.49211       40.36922       52.15993
O         60.95494       41.50113       52.20460
C         58.10752       40.96598       51.71457
H         58.60695       38.24327       51.98357
H         59.59090       40.51402       50.22083
H         58.36373       42.04679       51.74019
H         57.23424       40.82760       51.04320
H         57.81900       40.66174       52.74173
N         60.99990       39.39667       52.98056
C         62.03658       39.65165       53.98801
C         63.17761       38.62577       54.01733
O         64.07916       38.79844       54.82660
C         61.36495       39.75643       55.37716
C         60.63012       38.52578       55.85465
O         60.00830       38.55779       57.04757
O         60.57750       37.50759       55.18479
H         60.54782       38.48037       52.98649
H         62.51133       40.63975       53.79880
H         60.63291       40.59192       55.34026
H         62.13587       40.01810       56.13363
N         63.22647       37.54769       53.18515
C         64.30922       36.57111       53.18343
C         64.44376       35.70999       54.43536
O         65.36893       34.91001       54.45411
H         62.50576       37.43943       52.46953
H         65.26798       37.10739       53.01333
H         64.15943       35.87519       52.32911
N         63.60768       35.79557       55.51448
C         63.81323       34.99686       56.72452
C         63.73254       33.49316       56.46873
O         64.64251       32.78585       56.87841
C         62.92667       35.44503       57.91382
C         61.42577       35.35015       57.81090
N         60.68338       35.62085       58.90930
O         60.87130       35.04012       56.77084
H         62.83463       36.47005       55.50189
H         64.84318       35.20714       57.09408
H         63.16698       36.50382       58.15319
H         63.23107       34.82608       58.78616
H         61.13436       35.88879       59.79562
H         59.66016       35.54574       58.89201
N         62.71297       32.94490       55.75183
C         62.61559       31.53007       55.42334
C         61.25115       30.93333       55.71352
O         61.06019       29.77756       55.36176
H         62.01285       33.56932       55.34663
H         63.39713       30.92931       55.93706
H         62.77752       31.43183       54.32884
N         60.24899       31.63875       56.31947
C         58.90262       31.10684       56.51925
C         57.86221       31.99013       55.85478
O         58.16127       33.10813       55.45824
C         58.57738       31.01574       58.03255
C         59.45103       29.98022       58.73637
O         58.76352       32.26319       58.65637
H         60.42982       32.59350       56.65127
H         58.80985       30.09628       56.06373
H         57.52495       30.67695       58.17944
H         57.98103       32.82922       58.42677
H         60.52590       30.24329       58.65191
H         59.17855       29.93554       59.81282
H         59.28245       28.97647       58.29128
N         56.58392       31.53496       55.73584
C         55.46727       32.37580       55.32843
C         55.10234       33.24882       56.50972
O         54.86300       32.72257       57.58849
C         54.24619       31.51008       54.88244
C         54.61748       30.73323       53.59043
C         52.99749       32.39260       54.64661
C         53.53433       29.76663       53.10797
H         56.38107       30.56638       56.02875
H         55.74714       33.00085       54.44900
H         54.00037       30.78813       55.69303
H         55.53188       30.13050       53.77371
H         54.84118       31.45397       52.77216
H         53.18534       33.14473       53.85070
H         52.11435       31.78346       54.37243
H         52.70819       32.92230       55.57684
H         53.30844       29.01923       53.89691
H         52.60494       30.29865       52.82240
H         53.89749       29.23340       52.20421
N         54.96984       34.59084       56.35062
C         54.52429       35.48334       57.41289
C         53.09375       35.90860       57.13922
O         52.53709       35.52673       56.11850
C         55.51746       36.65486       57.51658
C         56.82024       36.16840       58.10300
O         57.91279       35.96740       57.33860
O         56.87189       35.89080       59.29042
H         55.11178       34.99255       55.41042
H         54.47565       34.95474       58.39055
H         55.13867       37.46952       58.16940
H         55.66682       37.08608       56.50165
N         52.39125       36.60826       58.07549
C         50.96869       36.89070       57.92886
C         50.66176       37.79689       56.74095
O         49.76818       37.43785       55.98904
C         50.34399       37.46681       59.21684
C         48.83450       37.50098       59.08002
C         48.10633       36.29844       58.97607
C         48.14420       38.72262       59.02582
C         46.71928       36.32081       58.81226
C         46.75474       38.73965       58.85670
C         46.04383       37.54071       58.74876
H         52.86422       36.87380       58.95334
H         50.46822       35.90967       57.76556
H         50.75406       38.47717       59.41118
H         50.59737       36.82941       60.09196
H         48.61098       35.34107       59.01874
H         48.68117       39.65975       59.09558
H         46.16946       35.39148       58.72939
H         46.22823       39.68320       58.80293
H         44.96985       37.55577       58.61444
N         51.31264       38.97898       56.48448
C         50.98126       39.83843       55.35438
C         51.42803       39.26511       54.01018
O         51.18914       39.91859       53.00435
C         51.69125       41.15185       55.69442
C         52.94030       40.65782       56.38660
C         52.38503       39.55022       57.27833
H         49.88744       40.03751       55.30572
H         51.84569       41.84523       54.84038
H         51.09045       41.68254       56.46889
H         53.58600       40.19399       55.60735
H         53.53401       41.42637       56.92421
H         53.21418       38.84961       57.48929
H         51.95889       39.95839       58.21814
N         52.04066       38.04962       53.90480
C         52.41734       37.42845       52.63848
C         51.56055       36.19855       52.36217
O         51.67665       35.64151       51.27943
C         53.89708       37.01201       52.69855
C         54.82124       38.20341       52.98516
C         56.20028       37.76684       53.35966
O         56.96994       38.58394       53.83599
O         56.54931       36.47006       53.35273
H         52.24612       37.51658       54.75520
H         52.25704       38.13665       51.79667
H         54.21247       36.50944       51.75898
H         53.99130       36.27600       53.53012
H         54.44052       38.73665       53.87963
H         54.84667       38.91317       52.13205
N         50.67805       35.71227       53.28207
C         49.82530       34.57618       53.02858
H         49.13517       34.80884       52.19124
H         50.43764       33.68357       52.78651
H         49.21856       34.35794       53.93510
H         50.59587       36.14357       54.20485
Ca        57.83511       36.06674       55.11191
O         61.05454       33.80067       53.09330
H         61.40417       34.63626       53.49501
H         61.84772       33.38431       52.67271
O         58.03419       33.71827       52.28788
H         58.53516       33.50444       51.46105
H         57.12418       33.94918       51.97354

Ca 1.0



